 ****** HSPICE -- J-2014.09-2 64-BIT (Oct 22 2014) win64 ******                 
  Copyright (C) 2014 Synopsys, Inc. All Rights Reserved.                        
  Unpublished-rights reserved under US copyright laws.
  This program is protected by law and is subject to the
  terms and conditions of the license agreement from Synopsys.
  Use of this program is your acceptance to be bound by the
  license agreement. HSPICE is the trademark of Synopsys, Inc.
  Input File: carryskip.sp                                                      
  Command line options: -i carryskip.sp -o carryskip.lis
  lic:  
  lic: FLEXlm: v10.9.8 
  lic: USER:   Venci                HOSTNAME: VincentPC 
  lic: HOSTID: "9cb6d0df42ff 9eb6d0df42ff aeb6d0df42ff" PID:      9296 
  lic: Using FLEXlm license file: 
  lic: 27000@VincentPC 
  lic: Checkout 1 hspice 
  lic: License/Maintenance for hspice will expire on 30-dec-2020/2019.2019 
  lic: 1(in_use)/99(total) FLOATING license(s) on SERVER 27000@VincentPC 
  lic:   
 Init: read install configuration file: C:\synopsys\Hspice_J-2014.09-2\meta.cfg
 scientific notation:
 a=10**-18  f=10**-15  p=10**-12  n=10**-9  u=10**-6
 m=10**-3   k=10**3    x=10**6    g=10**9 
1****** HSPICE -- J-2014.09-2 64-BIT (Oct 22 2014) win64 ******                 
 ******  
 carry_skip_adder

 ****** circuit name directory
 circuit number to circuit name directory
   number circuitname                     definition         multiplier
        0 main circuit
        1 xgroup1_1.                      group1             1.00 
        2 xgroup2_1.                      group2             1.00 
        3 xselect1.                       select             1.00 
        4 xgroup1_2.                      group1             1.00 
        5 xgroup2_2.                      group2             1.00 
        6 xselect2.                       select             1.00 
        7 xgroup1_3.                      group1             1.00 
        8 xgroup2_3.                      group2             1.00 
        9 xselect3.                       select             1.00 
       10 xgroup1_4.                      group1             1.00 
       11 xgroup2_4.                      group2             1.00 
       12 xselect4.                       select             1.00 
       13 xgroup1_1.xbit1.                bit1               1.00 
       14 xgroup1_1.xbit2.                bit1               1.00 
       15 xgroup1_1.xbit3.                bit1               1.00 
       16 xgroup1_1.xbit4.                bit2               1.00 
       17 xgroup2_1.xbit1.                bit4               1.00 
       18 xgroup2_1.xbit2.                bit3               1.00 
       19 xgroup2_1.xbit3.                bit3               1.00 
       20 xgroup2_1.xbit4.                bit3               1.00 
       21 xselect1.xm.                    and                1.00 
       22 xselect1.xg40.                  or                 1.00 
       23 xgroup1_2.xbit1.                bit1               1.00 
       24 xgroup1_2.xbit2.                bit1               1.00 
       25 xgroup1_2.xbit3.                bit1               1.00 
       26 xgroup1_2.xbit4.                bit2               1.00 
       27 xgroup2_2.xbit1.                bit4               1.00 
       28 xgroup2_2.xbit2.                bit3               1.00 
       29 xgroup2_2.xbit3.                bit3               1.00 
       30 xgroup2_2.xbit4.                bit3               1.00 
       31 xselect2.xm.                    and                1.00 
       32 xselect2.xg40.                  or                 1.00 
       33 xgroup1_3.xbit1.                bit1               1.00 
       34 xgroup1_3.xbit2.                bit1               1.00 
       35 xgroup1_3.xbit3.                bit1               1.00 
       36 xgroup1_3.xbit4.                bit2               1.00 
       37 xgroup2_3.xbit1.                bit4               1.00 
       38 xgroup2_3.xbit2.                bit3               1.00 
       39 xgroup2_3.xbit3.                bit3               1.00 
       40 xgroup2_3.xbit4.                bit3               1.00 
       41 xselect3.xm.                    and                1.00 
       42 xselect3.xg40.                  or                 1.00 
       43 xgroup1_4.xbit1.                bit1               1.00 
       44 xgroup1_4.xbit2.                bit1               1.00 
       45 xgroup1_4.xbit3.                bit1               1.00 
       46 xgroup1_4.xbit4.                bit2               1.00 
       47 xgroup2_4.xbit1.                bit4               1.00 
       48 xgroup2_4.xbit2.                bit3               1.00 
       49 xgroup2_4.xbit3.                bit3               1.00 
       50 xgroup2_4.xbit4.                bit3               1.00 
       51 xselect4.xm.                    and                1.00 
       52 xselect4.xg40.                  or                 1.00 
       53 xgroup1_1.xbit1.xp0.            xor                1.00 
       54 xgroup1_1.xbit1.xg0.            and                1.00 
       55 xgroup1_1.xbit1.xm.             and                1.00 
       56 xgroup1_1.xbit1.xc1.            or                 1.00 
       57 xgroup1_1.xbit1.xs0.            xor                1.00 
       58 xgroup1_1.xbit2.xp0.            xor                1.00 
       59 xgroup1_1.xbit2.xg0.            and                1.00 
       60 xgroup1_1.xbit2.xm.             and                1.00 
       61 xgroup1_1.xbit2.xc1.            or                 1.00 
       62 xgroup1_1.xbit2.xs0.            xor                1.00 
       63 xgroup1_1.xbit3.xp0.            xor                1.00 
       64 xgroup1_1.xbit3.xg0.            and                1.00 
       65 xgroup1_1.xbit3.xm.             and                1.00 
       66 xgroup1_1.xbit3.xc1.            or                 1.00 
       67 xgroup1_1.xbit3.xs0.            xor                1.00 
       68 xgroup1_1.xbit4.xp0.            xor                1.00 
       69 xgroup1_1.xbit4.xs0.            xor                1.00 
       70 xgroup2_1.xbit1.xp0.            xor                1.00 
       71 xgroup2_1.xbit1.xg0.            and                1.00 
       72 xgroup2_1.xbit2.xp0.            xor                1.00 
       73 xgroup2_1.xbit2.xg0.            and                1.00 
       74 xgroup2_1.xbit2.xm.             and                1.00 
       75 xgroup2_1.xbit2.xgout.          or                 1.00 
       76 xgroup2_1.xbit2.xpout.          and                1.00 
       77 xgroup2_1.xbit3.xp0.            xor                1.00 
       78 xgroup2_1.xbit3.xg0.            and                1.00 
       79 xgroup2_1.xbit3.xm.             and                1.00 
       80 xgroup2_1.xbit3.xgout.          or                 1.00 
       81 xgroup2_1.xbit3.xpout.          and                1.00 
       82 xgroup2_1.xbit4.xp0.            xor                1.00 
       83 xgroup2_1.xbit4.xg0.            and                1.00 
       84 xgroup2_1.xbit4.xm.             and                1.00 
       85 xgroup2_1.xbit4.xgout.          or                 1.00 
       86 xgroup2_1.xbit4.xpout.          and                1.00 
       87 xgroup1_2.xbit1.xp0.            xor                1.00 
       88 xgroup1_2.xbit1.xg0.            and                1.00 
       89 xgroup1_2.xbit1.xm.             and                1.00 
       90 xgroup1_2.xbit1.xc1.            or                 1.00 
       91 xgroup1_2.xbit1.xs0.            xor                1.00 
       92 xgroup1_2.xbit2.xp0.            xor                1.00 
       93 xgroup1_2.xbit2.xg0.            and                1.00 
       94 xgroup1_2.xbit2.xm.             and                1.00 
       95 xgroup1_2.xbit2.xc1.            or                 1.00 
       96 xgroup1_2.xbit2.xs0.            xor                1.00 
       97 xgroup1_2.xbit3.xp0.            xor                1.00 
       98 xgroup1_2.xbit3.xg0.            and                1.00 
       99 xgroup1_2.xbit3.xm.             and                1.00 
      100 xgroup1_2.xbit3.xc1.            or                 1.00 
      101 xgroup1_2.xbit3.xs0.            xor                1.00 
      102 xgroup1_2.xbit4.xp0.            xor                1.00 
      103 xgroup1_2.xbit4.xs0.            xor                1.00 
      104 xgroup2_2.xbit1.xp0.            xor                1.00 
      105 xgroup2_2.xbit1.xg0.            and                1.00 
      106 xgroup2_2.xbit2.xp0.            xor                1.00 
      107 xgroup2_2.xbit2.xg0.            and                1.00 
      108 xgroup2_2.xbit2.xm.             and                1.00 
      109 xgroup2_2.xbit2.xgout.          or                 1.00 
      110 xgroup2_2.xbit2.xpout.          and                1.00 
      111 xgroup2_2.xbit3.xp0.            xor                1.00 
      112 xgroup2_2.xbit3.xg0.            and                1.00 
      113 xgroup2_2.xbit3.xm.             and                1.00 
      114 xgroup2_2.xbit3.xgout.          or                 1.00 
      115 xgroup2_2.xbit3.xpout.          and                1.00 
      116 xgroup2_2.xbit4.xp0.            xor                1.00 
      117 xgroup2_2.xbit4.xg0.            and                1.00 
      118 xgroup2_2.xbit4.xm.             and                1.00 
      119 xgroup2_2.xbit4.xgout.          or                 1.00 
      120 xgroup2_2.xbit4.xpout.          and                1.00 
      121 xgroup1_3.xbit1.xp0.            xor                1.00 
      122 xgroup1_3.xbit1.xg0.            and                1.00 
      123 xgroup1_3.xbit1.xm.             and                1.00 
      124 xgroup1_3.xbit1.xc1.            or                 1.00 
      125 xgroup1_3.xbit1.xs0.            xor                1.00 
      126 xgroup1_3.xbit2.xp0.            xor                1.00 
      127 xgroup1_3.xbit2.xg0.            and                1.00 
      128 xgroup1_3.xbit2.xm.             and                1.00 
      129 xgroup1_3.xbit2.xc1.            or                 1.00 
      130 xgroup1_3.xbit2.xs0.            xor                1.00 
      131 xgroup1_3.xbit3.xp0.            xor                1.00 
      132 xgroup1_3.xbit3.xg0.            and                1.00 
      133 xgroup1_3.xbit3.xm.             and                1.00 
      134 xgroup1_3.xbit3.xc1.            or                 1.00 
      135 xgroup1_3.xbit3.xs0.            xor                1.00 
      136 xgroup1_3.xbit4.xp0.            xor                1.00 
      137 xgroup1_3.xbit4.xs0.            xor                1.00 
      138 xgroup2_3.xbit1.xp0.            xor                1.00 
      139 xgroup2_3.xbit1.xg0.            and                1.00 
      140 xgroup2_3.xbit2.xp0.            xor                1.00 
      141 xgroup2_3.xbit2.xg0.            and                1.00 
      142 xgroup2_3.xbit2.xm.             and                1.00 
      143 xgroup2_3.xbit2.xgout.          or                 1.00 
      144 xgroup2_3.xbit2.xpout.          and                1.00 
      145 xgroup2_3.xbit3.xp0.            xor                1.00 
      146 xgroup2_3.xbit3.xg0.            and                1.00 
      147 xgroup2_3.xbit3.xm.             and                1.00 
      148 xgroup2_3.xbit3.xgout.          or                 1.00 
      149 xgroup2_3.xbit3.xpout.          and                1.00 
      150 xgroup2_3.xbit4.xp0.            xor                1.00 
      151 xgroup2_3.xbit4.xg0.            and                1.00 
      152 xgroup2_3.xbit4.xm.             and                1.00 
      153 xgroup2_3.xbit4.xgout.          or                 1.00 
      154 xgroup2_3.xbit4.xpout.          and                1.00 
      155 xgroup1_4.xbit1.xp0.            xor                1.00 
      156 xgroup1_4.xbit1.xg0.            and                1.00 
      157 xgroup1_4.xbit1.xm.             and                1.00 
      158 xgroup1_4.xbit1.xc1.            or                 1.00 
      159 xgroup1_4.xbit1.xs0.            xor                1.00 
      160 xgroup1_4.xbit2.xp0.            xor                1.00 
      161 xgroup1_4.xbit2.xg0.            and                1.00 
      162 xgroup1_4.xbit2.xm.             and                1.00 
      163 xgroup1_4.xbit2.xc1.            or                 1.00 
      164 xgroup1_4.xbit2.xs0.            xor                1.00 
      165 xgroup1_4.xbit3.xp0.            xor                1.00 
      166 xgroup1_4.xbit3.xg0.            and                1.00 
      167 xgroup1_4.xbit3.xm.             and                1.00 
      168 xgroup1_4.xbit3.xc1.            or                 1.00 
      169 xgroup1_4.xbit3.xs0.            xor                1.00 
      170 xgroup1_4.xbit4.xp0.            xor                1.00 
      171 xgroup1_4.xbit4.xs0.            xor                1.00 
      172 xgroup2_4.xbit1.xp0.            xor                1.00 
      173 xgroup2_4.xbit1.xg0.            and                1.00 
      174 xgroup2_4.xbit2.xp0.            xor                1.00 
      175 xgroup2_4.xbit2.xg0.            and                1.00 
      176 xgroup2_4.xbit2.xm.             and                1.00 
      177 xgroup2_4.xbit2.xgout.          or                 1.00 
      178 xgroup2_4.xbit2.xpout.          and                1.00 
      179 xgroup2_4.xbit3.xp0.            xor                1.00 
      180 xgroup2_4.xbit3.xg0.            and                1.00 
      181 xgroup2_4.xbit3.xm.             and                1.00 
      182 xgroup2_4.xbit3.xgout.          or                 1.00 
      183 xgroup2_4.xbit3.xpout.          and                1.00 
      184 xgroup2_4.xbit4.xp0.            xor                1.00 
      185 xgroup2_4.xbit4.xg0.            and                1.00 
      186 xgroup2_4.xbit4.xm.             and                1.00 
      187 xgroup2_4.xbit4.xgout.          or                 1.00 
      188 xgroup2_4.xbit4.xpout.          and                1.00 
      189 xgroup1_1.xbit1.xp0.x1.         inv                1.00 
      190 xgroup1_1.xbit1.xp0.x2.         inv                1.00 
      191 xgroup1_1.xbit1.xp0.x3.         and                1.00 
      192 xgroup1_1.xbit1.xp0.x4.         and                1.00 
      193 xgroup1_1.xbit1.xp0.x5.         or                 1.00 
      194 xgroup1_1.xbit1.xs0.x1.         inv                1.00 
      195 xgroup1_1.xbit1.xs0.x2.         inv                1.00 
      196 xgroup1_1.xbit1.xs0.x3.         and                1.00 
      197 xgroup1_1.xbit1.xs0.x4.         and                1.00 
      198 xgroup1_1.xbit1.xs0.x5.         or                 1.00 
      199 xgroup1_1.xbit2.xp0.x1.         inv                1.00 
      200 xgroup1_1.xbit2.xp0.x2.         inv                1.00 
      201 xgroup1_1.xbit2.xp0.x3.         and                1.00 
      202 xgroup1_1.xbit2.xp0.x4.         and                1.00 
      203 xgroup1_1.xbit2.xp0.x5.         or                 1.00 
      204 xgroup1_1.xbit2.xs0.x1.         inv                1.00 
      205 xgroup1_1.xbit2.xs0.x2.         inv                1.00 
      206 xgroup1_1.xbit2.xs0.x3.         and                1.00 
      207 xgroup1_1.xbit2.xs0.x4.         and                1.00 
      208 xgroup1_1.xbit2.xs0.x5.         or                 1.00 
      209 xgroup1_1.xbit3.xp0.x1.         inv                1.00 
      210 xgroup1_1.xbit3.xp0.x2.         inv                1.00 
      211 xgroup1_1.xbit3.xp0.x3.         and                1.00 
      212 xgroup1_1.xbit3.xp0.x4.         and                1.00 
      213 xgroup1_1.xbit3.xp0.x5.         or                 1.00 
      214 xgroup1_1.xbit3.xs0.x1.         inv                1.00 
      215 xgroup1_1.xbit3.xs0.x2.         inv                1.00 
      216 xgroup1_1.xbit3.xs0.x3.         and                1.00 
      217 xgroup1_1.xbit3.xs0.x4.         and                1.00 
      218 xgroup1_1.xbit3.xs0.x5.         or                 1.00 
      219 xgroup1_1.xbit4.xp0.x1.         inv                1.00 
      220 xgroup1_1.xbit4.xp0.x2.         inv                1.00 
      221 xgroup1_1.xbit4.xp0.x3.         and                1.00 
      222 xgroup1_1.xbit4.xp0.x4.         and                1.00 
      223 xgroup1_1.xbit4.xp0.x5.         or                 1.00 
      224 xgroup1_1.xbit4.xs0.x1.         inv                1.00 
      225 xgroup1_1.xbit4.xs0.x2.         inv                1.00 
      226 xgroup1_1.xbit4.xs0.x3.         and                1.00 
      227 xgroup1_1.xbit4.xs0.x4.         and                1.00 
      228 xgroup1_1.xbit4.xs0.x5.         or                 1.00 
      229 xgroup2_1.xbit1.xp0.x1.         inv                1.00 
      230 xgroup2_1.xbit1.xp0.x2.         inv                1.00 
      231 xgroup2_1.xbit1.xp0.x3.         and                1.00 
      232 xgroup2_1.xbit1.xp0.x4.         and                1.00 
      233 xgroup2_1.xbit1.xp0.x5.         or                 1.00 
      234 xgroup2_1.xbit2.xp0.x1.         inv                1.00 
      235 xgroup2_1.xbit2.xp0.x2.         inv                1.00 
      236 xgroup2_1.xbit2.xp0.x3.         and                1.00 
      237 xgroup2_1.xbit2.xp0.x4.         and                1.00 
      238 xgroup2_1.xbit2.xp0.x5.         or                 1.00 
      239 xgroup2_1.xbit3.xp0.x1.         inv                1.00 
      240 xgroup2_1.xbit3.xp0.x2.         inv                1.00 
      241 xgroup2_1.xbit3.xp0.x3.         and                1.00 
      242 xgroup2_1.xbit3.xp0.x4.         and                1.00 
      243 xgroup2_1.xbit3.xp0.x5.         or                 1.00 
      244 xgroup2_1.xbit4.xp0.x1.         inv                1.00 
      245 xgroup2_1.xbit4.xp0.x2.         inv                1.00 
      246 xgroup2_1.xbit4.xp0.x3.         and                1.00 
      247 xgroup2_1.xbit4.xp0.x4.         and                1.00 
      248 xgroup2_1.xbit4.xp0.x5.         or                 1.00 
      249 xgroup1_2.xbit1.xp0.x1.         inv                1.00 
      250 xgroup1_2.xbit1.xp0.x2.         inv                1.00 
      251 xgroup1_2.xbit1.xp0.x3.         and                1.00 
      252 xgroup1_2.xbit1.xp0.x4.         and                1.00 
      253 xgroup1_2.xbit1.xp0.x5.         or                 1.00 
      254 xgroup1_2.xbit1.xs0.x1.         inv                1.00 
      255 xgroup1_2.xbit1.xs0.x2.         inv                1.00 
      256 xgroup1_2.xbit1.xs0.x3.         and                1.00 
      257 xgroup1_2.xbit1.xs0.x4.         and                1.00 
      258 xgroup1_2.xbit1.xs0.x5.         or                 1.00 
      259 xgroup1_2.xbit2.xp0.x1.         inv                1.00 
      260 xgroup1_2.xbit2.xp0.x2.         inv                1.00 
      261 xgroup1_2.xbit2.xp0.x3.         and                1.00 
      262 xgroup1_2.xbit2.xp0.x4.         and                1.00 
      263 xgroup1_2.xbit2.xp0.x5.         or                 1.00 
      264 xgroup1_2.xbit2.xs0.x1.         inv                1.00 
      265 xgroup1_2.xbit2.xs0.x2.         inv                1.00 
      266 xgroup1_2.xbit2.xs0.x3.         and                1.00 
      267 xgroup1_2.xbit2.xs0.x4.         and                1.00 
      268 xgroup1_2.xbit2.xs0.x5.         or                 1.00 
      269 xgroup1_2.xbit3.xp0.x1.         inv                1.00 
      270 xgroup1_2.xbit3.xp0.x2.         inv                1.00 
      271 xgroup1_2.xbit3.xp0.x3.         and                1.00 
      272 xgroup1_2.xbit3.xp0.x4.         and                1.00 
      273 xgroup1_2.xbit3.xp0.x5.         or                 1.00 
      274 xgroup1_2.xbit3.xs0.x1.         inv                1.00 
      275 xgroup1_2.xbit3.xs0.x2.         inv                1.00 
      276 xgroup1_2.xbit3.xs0.x3.         and                1.00 
      277 xgroup1_2.xbit3.xs0.x4.         and                1.00 
      278 xgroup1_2.xbit3.xs0.x5.         or                 1.00 
      279 xgroup1_2.xbit4.xp0.x1.         inv                1.00 
      280 xgroup1_2.xbit4.xp0.x2.         inv                1.00 
      281 xgroup1_2.xbit4.xp0.x3.         and                1.00 
      282 xgroup1_2.xbit4.xp0.x4.         and                1.00 
      283 xgroup1_2.xbit4.xp0.x5.         or                 1.00 
      284 xgroup1_2.xbit4.xs0.x1.         inv                1.00 
      285 xgroup1_2.xbit4.xs0.x2.         inv                1.00 
      286 xgroup1_2.xbit4.xs0.x3.         and                1.00 
      287 xgroup1_2.xbit4.xs0.x4.         and                1.00 
      288 xgroup1_2.xbit4.xs0.x5.         or                 1.00 
      289 xgroup2_2.xbit1.xp0.x1.         inv                1.00 
      290 xgroup2_2.xbit1.xp0.x2.         inv                1.00 
      291 xgroup2_2.xbit1.xp0.x3.         and                1.00 
      292 xgroup2_2.xbit1.xp0.x4.         and                1.00 
      293 xgroup2_2.xbit1.xp0.x5.         or                 1.00 
      294 xgroup2_2.xbit2.xp0.x1.         inv                1.00 
      295 xgroup2_2.xbit2.xp0.x2.         inv                1.00 
      296 xgroup2_2.xbit2.xp0.x3.         and                1.00 
      297 xgroup2_2.xbit2.xp0.x4.         and                1.00 
      298 xgroup2_2.xbit2.xp0.x5.         or                 1.00 
      299 xgroup2_2.xbit3.xp0.x1.         inv                1.00 
      300 xgroup2_2.xbit3.xp0.x2.         inv                1.00 
      301 xgroup2_2.xbit3.xp0.x3.         and                1.00 
      302 xgroup2_2.xbit3.xp0.x4.         and                1.00 
      303 xgroup2_2.xbit3.xp0.x5.         or                 1.00 
      304 xgroup2_2.xbit4.xp0.x1.         inv                1.00 
      305 xgroup2_2.xbit4.xp0.x2.         inv                1.00 
      306 xgroup2_2.xbit4.xp0.x3.         and                1.00 
      307 xgroup2_2.xbit4.xp0.x4.         and                1.00 
      308 xgroup2_2.xbit4.xp0.x5.         or                 1.00 
      309 xgroup1_3.xbit1.xp0.x1.         inv                1.00 
      310 xgroup1_3.xbit1.xp0.x2.         inv                1.00 
      311 xgroup1_3.xbit1.xp0.x3.         and                1.00 
      312 xgroup1_3.xbit1.xp0.x4.         and                1.00 
      313 xgroup1_3.xbit1.xp0.x5.         or                 1.00 
      314 xgroup1_3.xbit1.xs0.x1.         inv                1.00 
      315 xgroup1_3.xbit1.xs0.x2.         inv                1.00 
      316 xgroup1_3.xbit1.xs0.x3.         and                1.00 
      317 xgroup1_3.xbit1.xs0.x4.         and                1.00 
      318 xgroup1_3.xbit1.xs0.x5.         or                 1.00 
      319 xgroup1_3.xbit2.xp0.x1.         inv                1.00 
      320 xgroup1_3.xbit2.xp0.x2.         inv                1.00 
      321 xgroup1_3.xbit2.xp0.x3.         and                1.00 
      322 xgroup1_3.xbit2.xp0.x4.         and                1.00 
      323 xgroup1_3.xbit2.xp0.x5.         or                 1.00 
      324 xgroup1_3.xbit2.xs0.x1.         inv                1.00 
      325 xgroup1_3.xbit2.xs0.x2.         inv                1.00 
      326 xgroup1_3.xbit2.xs0.x3.         and                1.00 
      327 xgroup1_3.xbit2.xs0.x4.         and                1.00 
      328 xgroup1_3.xbit2.xs0.x5.         or                 1.00 
      329 xgroup1_3.xbit3.xp0.x1.         inv                1.00 
      330 xgroup1_3.xbit3.xp0.x2.         inv                1.00 
      331 xgroup1_3.xbit3.xp0.x3.         and                1.00 
      332 xgroup1_3.xbit3.xp0.x4.         and                1.00 
      333 xgroup1_3.xbit3.xp0.x5.         or                 1.00 
      334 xgroup1_3.xbit3.xs0.x1.         inv                1.00 
      335 xgroup1_3.xbit3.xs0.x2.         inv                1.00 
      336 xgroup1_3.xbit3.xs0.x3.         and                1.00 
      337 xgroup1_3.xbit3.xs0.x4.         and                1.00 
      338 xgroup1_3.xbit3.xs0.x5.         or                 1.00 
      339 xgroup1_3.xbit4.xp0.x1.         inv                1.00 
      340 xgroup1_3.xbit4.xp0.x2.         inv                1.00 
      341 xgroup1_3.xbit4.xp0.x3.         and                1.00 
      342 xgroup1_3.xbit4.xp0.x4.         and                1.00 
      343 xgroup1_3.xbit4.xp0.x5.         or                 1.00 
      344 xgroup1_3.xbit4.xs0.x1.         inv                1.00 
      345 xgroup1_3.xbit4.xs0.x2.         inv                1.00 
      346 xgroup1_3.xbit4.xs0.x3.         and                1.00 
      347 xgroup1_3.xbit4.xs0.x4.         and                1.00 
      348 xgroup1_3.xbit4.xs0.x5.         or                 1.00 
      349 xgroup2_3.xbit1.xp0.x1.         inv                1.00 
      350 xgroup2_3.xbit1.xp0.x2.         inv                1.00 
      351 xgroup2_3.xbit1.xp0.x3.         and                1.00 
      352 xgroup2_3.xbit1.xp0.x4.         and                1.00 
      353 xgroup2_3.xbit1.xp0.x5.         or                 1.00 
      354 xgroup2_3.xbit2.xp0.x1.         inv                1.00 
      355 xgroup2_3.xbit2.xp0.x2.         inv                1.00 
      356 xgroup2_3.xbit2.xp0.x3.         and                1.00 
      357 xgroup2_3.xbit2.xp0.x4.         and                1.00 
      358 xgroup2_3.xbit2.xp0.x5.         or                 1.00 
      359 xgroup2_3.xbit3.xp0.x1.         inv                1.00 
      360 xgroup2_3.xbit3.xp0.x2.         inv                1.00 
      361 xgroup2_3.xbit3.xp0.x3.         and                1.00 
      362 xgroup2_3.xbit3.xp0.x4.         and                1.00 
      363 xgroup2_3.xbit3.xp0.x5.         or                 1.00 
      364 xgroup2_3.xbit4.xp0.x1.         inv                1.00 
      365 xgroup2_3.xbit4.xp0.x2.         inv                1.00 
      366 xgroup2_3.xbit4.xp0.x3.         and                1.00 
      367 xgroup2_3.xbit4.xp0.x4.         and                1.00 
      368 xgroup2_3.xbit4.xp0.x5.         or                 1.00 
      369 xgroup1_4.xbit1.xp0.x1.         inv                1.00 
      370 xgroup1_4.xbit1.xp0.x2.         inv                1.00 
      371 xgroup1_4.xbit1.xp0.x3.         and                1.00 
      372 xgroup1_4.xbit1.xp0.x4.         and                1.00 
      373 xgroup1_4.xbit1.xp0.x5.         or                 1.00 
      374 xgroup1_4.xbit1.xs0.x1.         inv                1.00 
      375 xgroup1_4.xbit1.xs0.x2.         inv                1.00 
      376 xgroup1_4.xbit1.xs0.x3.         and                1.00 
      377 xgroup1_4.xbit1.xs0.x4.         and                1.00 
      378 xgroup1_4.xbit1.xs0.x5.         or                 1.00 
      379 xgroup1_4.xbit2.xp0.x1.         inv                1.00 
      380 xgroup1_4.xbit2.xp0.x2.         inv                1.00 
      381 xgroup1_4.xbit2.xp0.x3.         and                1.00 
      382 xgroup1_4.xbit2.xp0.x4.         and                1.00 
      383 xgroup1_4.xbit2.xp0.x5.         or                 1.00 
      384 xgroup1_4.xbit2.xs0.x1.         inv                1.00 
      385 xgroup1_4.xbit2.xs0.x2.         inv                1.00 
      386 xgroup1_4.xbit2.xs0.x3.         and                1.00 
      387 xgroup1_4.xbit2.xs0.x4.         and                1.00 
      388 xgroup1_4.xbit2.xs0.x5.         or                 1.00 
      389 xgroup1_4.xbit3.xp0.x1.         inv                1.00 
      390 xgroup1_4.xbit3.xp0.x2.         inv                1.00 
      391 xgroup1_4.xbit3.xp0.x3.         and                1.00 
      392 xgroup1_4.xbit3.xp0.x4.         and                1.00 
      393 xgroup1_4.xbit3.xp0.x5.         or                 1.00 
      394 xgroup1_4.xbit3.xs0.x1.         inv                1.00 
      395 xgroup1_4.xbit3.xs0.x2.         inv                1.00 
      396 xgroup1_4.xbit3.xs0.x3.         and                1.00 
      397 xgroup1_4.xbit3.xs0.x4.         and                1.00 
      398 xgroup1_4.xbit3.xs0.x5.         or                 1.00 
      399 xgroup1_4.xbit4.xp0.x1.         inv                1.00 
      400 xgroup1_4.xbit4.xp0.x2.         inv                1.00 
      401 xgroup1_4.xbit4.xp0.x3.         and                1.00 
      402 xgroup1_4.xbit4.xp0.x4.         and                1.00 
      403 xgroup1_4.xbit4.xp0.x5.         or                 1.00 
      404 xgroup1_4.xbit4.xs0.x1.         inv                1.00 
      405 xgroup1_4.xbit4.xs0.x2.         inv                1.00 
      406 xgroup1_4.xbit4.xs0.x3.         and                1.00 
      407 xgroup1_4.xbit4.xs0.x4.         and                1.00 
      408 xgroup1_4.xbit4.xs0.x5.         or                 1.00 
      409 xgroup2_4.xbit1.xp0.x1.         inv                1.00 
      410 xgroup2_4.xbit1.xp0.x2.         inv                1.00 
      411 xgroup2_4.xbit1.xp0.x3.         and                1.00 
      412 xgroup2_4.xbit1.xp0.x4.         and                1.00 
      413 xgroup2_4.xbit1.xp0.x5.         or                 1.00 
      414 xgroup2_4.xbit2.xp0.x1.         inv                1.00 
      415 xgroup2_4.xbit2.xp0.x2.         inv                1.00 
      416 xgroup2_4.xbit2.xp0.x3.         and                1.00 
      417 xgroup2_4.xbit2.xp0.x4.         and                1.00 
      418 xgroup2_4.xbit2.xp0.x5.         or                 1.00 
      419 xgroup2_4.xbit3.xp0.x1.         inv                1.00 
      420 xgroup2_4.xbit3.xp0.x2.         inv                1.00 
      421 xgroup2_4.xbit3.xp0.x3.         and                1.00 
      422 xgroup2_4.xbit3.xp0.x4.         and                1.00 
      423 xgroup2_4.xbit3.xp0.x5.         or                 1.00 
      424 xgroup2_4.xbit4.xp0.x1.         inv                1.00 
      425 xgroup2_4.xbit4.xp0.x2.         inv                1.00 
      426 xgroup2_4.xbit4.xp0.x3.         and                1.00 
      427 xgroup2_4.xbit4.xp0.x4.         and                1.00 
      428 xgroup2_4.xbit4.xp0.x5.         or                 1.00 


 circuit parameter definitions
  parameter          =  value 

     0:supply                                                  = 700.0000m      
     0:vdd                                                     = 700.0000m      
     0:vddp                                                    =-700.0000m      
     0:lg                                                      =  16.0000n      
     0:wg                                                      =  48.0000n      
     0:nlength                                                 =  16.0000n      
     0:plength                                                 =  16.0000n      
     0:nwidth                                                  =  24.0000n      
     0:pwidth                                                  =  48.0000n      
     0:tplh                                                    =   0.           
     0:tphl                                                    =   0.           
     0:tp                                                      =   0.           




 constants  - tnom         kt           vt           gapsi        ni
            298.15000    4.1163e-21    25.69184m     1.11562    1.2565e+16 
1****** HSPICE -- J-2014.09-2 64-BIT (Oct 22 2014) win64 ******                 
 ******  
 carry_skip_adder

 ****** mos   model parameters tnom=  25.000 temp=  25.000 ******
 ***************************************************************************
 *** common model parameters  model name:   0:pch      model type:pmos   ***
 ***************************************************************************
     names  values   units     names  values   units     names  values   units
     -----  ------   -----     -----  ------   -----     -----  ------   -----

   1*** geometry parameters ***
       ld=   0.    meters      lmlt=   1.00                wd=   0.    meters 
     wmlt=   1.00                xl=   0.    meters        xw=   0.    meters 
     lref=   0.    meters      wref=   0.    meters      lref=   0.    meters 
     wref=   0.    meters     xlref=   0.    meters     xwref=   0.    meters 
     lmin=   0.    meters      wmin=   0.    meters      lmax=   0.    meters 
     wmax=   0.    meters 

   2*** threshold voltage parameters ***
      vto=-133.88m volts        nss=   0.    1/cm**2      tpg=   1.00         
      phi= 579.84m volts      gamma= 527.63m v**0.5      bulk=  gnd           
    ngate=   0.    cm**3       nsub= 1.0e+15 1/cm**3   delvto=   0.    volts  

   3*** gate overlap capacitance parameters ***
     cgbo=   0.    f/meter     cgdo=   0.    f/meter     cgso=   0.    f/meter
     meto=   0.    meters 

   4*** gate capacitance parameters ***
    capop=   2.00               cf1=   0.    volts        cf2= 100.00m volts  
      cf3=   1.00  volts        cf4=  50.00               cf5= 666.67m        
      cf6= 500.00               xqc= 500.00m              tox= 100.00n meters 
      cox= 345.31u f/m**2 

   5*** diffusion parasitic parameters ***
      acm=   0.                  is=  10.00f amps          js=   0.    a/m**2 
      jsw=   0.    amp/m        nds=   1.00               cbd=   0.    farad  
      cbs=   0.    farad         cj= 101.85u f/m**2      cjsw=   0.    f/m    
   cjgate=   0.    f/m           mj= 500.00m             mjsw= 330.00m        
       pb= 800.00m volts        php= 800.00m volts         tt=   0.    secs   
     hdif=   0.    meters      ldif=   0.    meters        rd=   0.    ohms   
       rs=   0.    ohms         rsh=   0.    ohms/sq       fc=   0.           
    alpha=   0.                 vcr=   0.    volts      iirat=   0.           
      rdc=   0.    ohms         rsc=   0.    ohms           n=   1.00         
     vnds=  -1.00  volts  

   6*** temperature effect parameters ***
     tlev=   0.               tlevc=   0.                  eg=   1.11  ev     
     gap1= 702.00u ev/deg      gap2=   1.11k deg          xti=   0.           
      bex=  -1.50               tcv=   0.    v/deg k      trd=   0.    /deg   
      trs=   0.    /deg         cta=   0.    /deg         ctp=   0.    /deg   

   7*** noise parameters ***
       kf=   0.                  af=   1.00              nlev=   2.00         
   gdsnoi=   1.00         

   ***  level  1  model parameters  ***

   lambda=   0.    /v            kp=   8.63u a/v**2 
 ***************************************************************************
 *** common model parameters  model name:   0:nch      model type:nmos   ***
 ***************************************************************************
     names  values   units     names  values   units     names  values   units
     -----  ------   -----     -----  ------   -----     -----  ------   -----

   1*** geometry parameters ***
       ld=   0.    meters      lmlt=   1.00                wd=   0.    meters 
     wmlt=   1.00                xl=   0.    meters        xw=   0.    meters 
     lref=   0.    meters      wref=   0.    meters      lref=   0.    meters 
     wref=   0.    meters     xlref=   0.    meters     xwref=   0.    meters 
     lmin=   0.    meters      wmin=   0.    meters      lmax=   0.    meters 
     wmax=   0.    meters 

   2*** threshold voltage parameters ***
      vto= 133.88m volts        nss=   0.    1/cm**2      tpg=   1.00         
      phi= 579.84m volts      gamma= 527.63m v**0.5      bulk=  gnd           
    ngate=   0.    cm**3       nsub= 1.0e+15 1/cm**3   delvto=   0.    volts  

   3*** gate overlap capacitance parameters ***
     cgbo=   0.    f/meter     cgdo=   0.    f/meter     cgso=   0.    f/meter
     meto=   0.    meters 

   4*** gate capacitance parameters ***
    capop=   2.00               cf1=   0.    volts        cf2= 100.00m volts  
      cf3=   1.00  volts        cf4=  50.00               cf5= 666.67m        
      cf6= 500.00               xqc= 500.00m              tox= 100.00n meters 
      cox= 345.31u f/m**2 

   5*** diffusion parasitic parameters ***
      acm=   0.                  is=  10.00f amps          js=   0.    a/m**2 
      jsw=   0.    amp/m        nds=   1.00               cbd=   0.    farad  
      cbs=   0.    farad         cj= 101.85u f/m**2      cjsw=   0.    f/m    
   cjgate=   0.    f/m           mj= 500.00m             mjsw= 330.00m        
       pb= 800.00m volts        php= 800.00m volts         tt=   0.    secs   
     hdif=   0.    meters      ldif=   0.    meters        rd=   0.    ohms   
       rs=   0.    ohms         rsh=   0.    ohms/sq       fc=   0.           
    alpha=   0.                 vcr=   0.    volts      iirat=   0.           
      rdc=   0.    ohms         rsc=   0.    ohms           n=   1.00         
     vnds=  -1.00  volts  

   6*** temperature effect parameters ***
     tlev=   0.               tlevc=   0.                  eg=   1.11  ev     
     gap1= 702.00u ev/deg      gap2=   1.11k deg          xti=   0.           
      bex=  -1.50               tcv=   0.    v/deg k      trd=   0.    /deg   
      trs=   0.    /deg         cta=   0.    /deg         ctp=   0.    /deg   

   7*** noise parameters ***
       kf=   0.                  af=   1.00              nlev=   2.00         
   gdsnoi=   1.00         

   ***  level  1  model parameters  ***

   lambda=   0.    /v            kp=  20.72u a/v**2 
  **info** (carryskip.sp:155) DC voltage reset to initial transient source value              in source        0:vc                  new dc=  0.0000D+00
1****** HSPICE -- J-2014.09-2 64-BIT (Oct 22 2014) win64 ******                 
 ******  
 carry_skip_adder

 ****** circuit element summary tnom=  25.000 temp=  25.000 ******


 **** independent sources

     name         node1        node2      dc volt    ac mag    ac phase    type
  va1  ina1              0                    0.         0.         0.      dc   
  va10  ina10             0                    0.         0.         0.      dc   
  va11  ina11             0                    0.         0.         0.      dc   
  va12  ina12             0                    0.         0.         0.      dc   
  va13  ina13             0                    0.         0.         0.      dc   
  va14  ina14             0                    0.         0.         0.      dc   
  va15  ina15             0                    0.         0.         0.      dc   
  va16  ina16             0                    0.         0.         0.      dc   
  va2  ina2              0                    0.         0.         0.      dc   
  va3  ina3              0                    0.         0.         0.      dc   
  va4  ina4              0                    0.         0.         0.      dc   
  va5  ina5              0                    0.         0.         0.      dc   
  va6  ina6              0                    0.         0.         0.      dc   
  va7  ina7              0                    0.         0.         0.      dc   
  va8  ina8              0                    0.         0.         0.      dc   
  va9  ina9              0                    0.         0.         0.      dc   
  vb1  inb1              0                  700.0000m    0.         0.      dc   
  vb10  inb10             0                  700.0000m    0.         0.      dc   
  vb11  inb11             0                  700.0000m    0.         0.      dc   
  vb12  inb12             0                  700.0000m    0.         0.      dc   
  vb13  inb13             0                  700.0000m    0.         0.      dc   
  vb14  inb14             0                  700.0000m    0.         0.      dc   
  vb15  inb15             0                  700.0000m    0.         0.      dc   
  vb16  inb16             0                  700.0000m    0.         0.      dc   
  vb2  inb2              0                  700.0000m    0.         0.      dc   
  vb3  inb3              0                  700.0000m    0.         0.      dc   
  vb4  inb4              0                  700.0000m    0.         0.      dc   
  vb5  inb5              0                  700.0000m    0.         0.      dc   
  vb6  inb6              0                  700.0000m    0.         0.      dc   
  vb7  inb7              0                  700.0000m    0.         0.      dc   
  vb8  inb8              0                  700.0000m    0.         0.      dc   
  vb9  inb9              0                  700.0000m    0.         0.      dc   
  vc  c0                0                    0.         0.         0.      pulse
             initial value     0.     
             pulsed value.   700.0000m
             delay time...   100.0000p
             risetime.....   500.0000p
             falltime.....   500.0000p
             width........    50.0000n
             period.......   100.0000n

  vdd  vdd               0                  700.0000m    0.         0.      dc   


 **** mosfets
  
  
                                                              
 element name       21:m0      21:m1      21:m2      21:m3    
 drain               3:x       21:net1    21:net2     3:x     
 gate               21:net1     0:c0       0:p41     21:net1  
 source              0:0       21:net2     0:0        0:vdd   
 bulk                0:0       21:net2     0:0        0:vdd   
 model               0:nch      0:nch      0:nch      0:pch   
 w eff              24.0000n   48.0000n   48.0000n   48.0000n 
 l eff              16.0000n   16.0000n   16.0000n   16.0000n 
 rd eff              0.         0.         0.         0.      
 rs eff              0.         0.         0.         0.      
 cdsat              10.0000f   10.0000f   10.0000f   10.0000f 
 cssat              10.0000f   10.0000f   10.0000f   10.0000f 
 capbd               0.         0.         0.         0.      
 capbs               0.         0.         0.         0.      
 temp               25.0000    25.0000    25.0000    25.0000  
 aic                                                          
 m                   1.0000     1.0000     1.0000     1.0000  
 w drawn            24.0000n   48.0000n   48.0000n   48.0000n 
 l drawn            16.0000n   16.0000n   16.0000n   16.0000n 
  
  
                                                              
 element name       21:m4      21:m5      22:m0      22:m1    
 drain              21:net1    21:net1     0:g40     22:net1  
 gate                0:p41      0:c0      22:net1     0:g41   
 source              0:vdd      0:vdd      0:0        0:0     
 bulk                0:vdd      0:vdd      0:0        0:0     
 model               0:pch      0:pch      0:nch      0:nch   
 w eff              48.0000n   48.0000n   24.0000n   24.0000n 
 l eff              16.0000n   16.0000n   16.0000n   16.0000n 
 rd eff              0.         0.         0.         0.      
 rs eff              0.         0.         0.         0.      
 cdsat              10.0000f   10.0000f   10.0000f   10.0000f 
 cssat              10.0000f   10.0000f   10.0000f   10.0000f 
 capbd               0.         0.         0.         0.      
 capbs               0.         0.         0.         0.      
 temp               25.0000    25.0000    25.0000    25.0000  
 aic                                                          
 m                   1.0000     1.0000     1.0000     1.0000  
 w drawn            48.0000n   48.0000n   24.0000n   24.0000n 
 l drawn            16.0000n   16.0000n   16.0000n   16.0000n 
  
  
                                                              
 element name       22:m2      22:m3      22:m4      22:m5    
 drain              22:net1     0:g40     22:net1    22:net2  
 gate                3:x       22:net1     3:x        0:g41   
 source              0:0        0:vdd     22:net2     0:vdd   
 bulk                0:0        0:vdd     22:net2     0:vdd   
 model               0:nch      0:pch      0:pch      0:pch   
 w eff              24.0000n   48.0000n   96.0000n   96.0000n 
 l eff              16.0000n   16.0000n   16.0000n   16.0000n 
 rd eff              0.         0.         0.         0.      
 rs eff              0.         0.         0.         0.      
 cdsat              10.0000f   10.0000f   10.0000f   10.0000f 
 cssat              10.0000f   10.0000f   10.0000f   10.0000f 
 capbd               0.         0.         0.         0.      
 capbs               0.         0.         0.         0.      
 temp               25.0000    25.0000    25.0000    25.0000  
 aic                                                          
 m                   1.0000     1.0000     1.0000     1.0000  
 w drawn            24.0000n   48.0000n   96.0000n   96.0000n 
 l drawn            16.0000n   16.0000n   16.0000n   16.0000n 
  
  
                                                              
 element name       31:m0      31:m1      31:m2      31:m3    
 drain               6:x       31:net1    31:net2     6:x     
 gate               31:net1     0:g40      0:p85     31:net1  
 source              0:0       31:net2     0:0        0:vdd   
 bulk                0:0       31:net2     0:0        0:vdd   
 model               0:nch      0:nch      0:nch      0:pch   
 w eff              24.0000n   48.0000n   48.0000n   48.0000n 
 l eff              16.0000n   16.0000n   16.0000n   16.0000n 
 rd eff              0.         0.         0.         0.      
 rs eff              0.         0.         0.         0.      
 cdsat              10.0000f   10.0000f   10.0000f   10.0000f 
 cssat              10.0000f   10.0000f   10.0000f   10.0000f 
 capbd               0.         0.         0.         0.      
 capbs               0.         0.         0.         0.      
 temp               25.0000    25.0000    25.0000    25.0000  
 aic                                                          
 m                   1.0000     1.0000     1.0000     1.0000  
 w drawn            24.0000n   48.0000n   48.0000n   48.0000n 
 l drawn            16.0000n   16.0000n   16.0000n   16.0000n 
  
  
                                                              
 element name       31:m4      31:m5      32:m0      32:m1    
 drain              31:net1    31:net1     0:g80     32:net1  
 gate                0:p85      0:g40     32:net1     0:g85   
 source              0:vdd      0:vdd      0:0        0:0     
 bulk                0:vdd      0:vdd      0:0        0:0     
 model               0:pch      0:pch      0:nch      0:nch   
 w eff              48.0000n   48.0000n   24.0000n   24.0000n 
 l eff              16.0000n   16.0000n   16.0000n   16.0000n 
 rd eff              0.         0.         0.         0.      
 rs eff              0.         0.         0.         0.      
 cdsat              10.0000f   10.0000f   10.0000f   10.0000f 
 cssat              10.0000f   10.0000f   10.0000f   10.0000f 
 capbd               0.         0.         0.         0.      
 capbs               0.         0.         0.         0.      
 temp               25.0000    25.0000    25.0000    25.0000  
 aic                                                          
 m                   1.0000     1.0000     1.0000     1.0000  
 w drawn            48.0000n   48.0000n   24.0000n   24.0000n 
 l drawn            16.0000n   16.0000n   16.0000n   16.0000n 
  
  
                                                              
 element name       32:m2      32:m3      32:m4      32:m5    
 drain              32:net1     0:g80     32:net1    32:net2  
 gate                6:x       32:net1     6:x        0:g85   
 source              0:0        0:vdd     32:net2     0:vdd   
 bulk                0:0        0:vdd     32:net2     0:vdd   
 model               0:nch      0:pch      0:pch      0:pch   
 w eff              24.0000n   48.0000n   96.0000n   96.0000n 
 l eff              16.0000n   16.0000n   16.0000n   16.0000n 
 rd eff              0.         0.         0.         0.      
 rs eff              0.         0.         0.         0.      
 cdsat              10.0000f   10.0000f   10.0000f   10.0000f 
 cssat              10.0000f   10.0000f   10.0000f   10.0000f 
 capbd               0.         0.         0.         0.      
 capbs               0.         0.         0.         0.      
 temp               25.0000    25.0000    25.0000    25.0000  
 aic                                                          
 m                   1.0000     1.0000     1.0000     1.0000  
 w drawn            24.0000n   48.0000n   96.0000n   96.0000n 
 l drawn            16.0000n   16.0000n   16.0000n   16.0000n 
  
  
                                                              
 element name       41:m0      41:m1      41:m2      41:m3    
 drain               9:x       41:net1    41:net2     9:x     
 gate               41:net1     0:g80      0:p129    41:net1  
 source              0:0       41:net2     0:0        0:vdd   
 bulk                0:0       41:net2     0:0        0:vdd   
 model               0:nch      0:nch      0:nch      0:pch   
 w eff              24.0000n   48.0000n   48.0000n   48.0000n 
 l eff              16.0000n   16.0000n   16.0000n   16.0000n 
 rd eff              0.         0.         0.         0.      
 rs eff              0.         0.         0.         0.      
 cdsat              10.0000f   10.0000f   10.0000f   10.0000f 
 cssat              10.0000f   10.0000f   10.0000f   10.0000f 
 capbd               0.         0.         0.         0.      
 capbs               0.         0.         0.         0.      
 temp               25.0000    25.0000    25.0000    25.0000  
 aic                                                          
 m                   1.0000     1.0000     1.0000     1.0000  
 w drawn            24.0000n   48.0000n   48.0000n   48.0000n 
 l drawn            16.0000n   16.0000n   16.0000n   16.0000n 
  
  
                                                              
 element name       41:m4      41:m5      42:m0      42:m1    
 drain              41:net1    41:net1     0:g120    42:net1  
 gate                0:p129     0:g80     42:net1     0:g129  
 source              0:vdd      0:vdd      0:0        0:0     
 bulk                0:vdd      0:vdd      0:0        0:0     
 model               0:pch      0:pch      0:nch      0:nch   
 w eff              48.0000n   48.0000n   24.0000n   24.0000n 
 l eff              16.0000n   16.0000n   16.0000n   16.0000n 
 rd eff              0.         0.         0.         0.      
 rs eff              0.         0.         0.         0.      
 cdsat              10.0000f   10.0000f   10.0000f   10.0000f 
 cssat              10.0000f   10.0000f   10.0000f   10.0000f 
 capbd               0.         0.         0.         0.      
 capbs               0.         0.         0.         0.      
 temp               25.0000    25.0000    25.0000    25.0000  
 aic                                                          
 m                   1.0000     1.0000     1.0000     1.0000  
 w drawn            48.0000n   48.0000n   24.0000n   24.0000n 
 l drawn            16.0000n   16.0000n   16.0000n   16.0000n 
  
  
                                                              
 element name       42:m2      42:m3      42:m4      42:m5    
 drain              42:net1     0:g120    42:net1    42:net2  
 gate                9:x       42:net1     9:x        0:g129  
 source              0:0        0:vdd     42:net2     0:vdd   
 bulk                0:0        0:vdd     42:net2     0:vdd   
 model               0:nch      0:pch      0:pch      0:pch   
 w eff              24.0000n   48.0000n   96.0000n   96.0000n 
 l eff              16.0000n   16.0000n   16.0000n   16.0000n 
 rd eff              0.         0.         0.         0.      
 rs eff              0.         0.         0.         0.      
 cdsat              10.0000f   10.0000f   10.0000f   10.0000f 
 cssat              10.0000f   10.0000f   10.0000f   10.0000f 
 capbd               0.         0.         0.         0.      
 capbs               0.         0.         0.         0.      
 temp               25.0000    25.0000    25.0000    25.0000  
 aic                                                          
 m                   1.0000     1.0000     1.0000     1.0000  
 w drawn            24.0000n   48.0000n   96.0000n   96.0000n 
 l drawn            16.0000n   16.0000n   16.0000n   16.0000n 
  
  
                                                              
 element name       51:m0      51:m1      51:m2      51:m3    
 drain              12:x       51:net1    51:net2    12:x     
 gate               51:net1     0:g120     0:p1613   51:net1  
 source              0:0       51:net2     0:0        0:vdd   
 bulk                0:0       51:net2     0:0        0:vdd   
 model               0:nch      0:nch      0:nch      0:pch   
 w eff              24.0000n   48.0000n   48.0000n   48.0000n 
 l eff              16.0000n   16.0000n   16.0000n   16.0000n 
 rd eff              0.         0.         0.         0.      
 rs eff              0.         0.         0.         0.      
 cdsat              10.0000f   10.0000f   10.0000f   10.0000f 
 cssat              10.0000f   10.0000f   10.0000f   10.0000f 
 capbd               0.         0.         0.         0.      
 capbs               0.         0.         0.         0.      
 temp               25.0000    25.0000    25.0000    25.0000  
 aic                                                          
 m                   1.0000     1.0000     1.0000     1.0000  
 w drawn            24.0000n   48.0000n   48.0000n   48.0000n 
 l drawn            16.0000n   16.0000n   16.0000n   16.0000n 
  
  
                                                              
 element name       51:m4      51:m5      52:m0      52:m1    
 drain              51:net1    51:net1     0:g160    52:net1  
 gate                0:p1613    0:g120    52:net1     0:g1613 
 source              0:vdd      0:vdd      0:0        0:0     
 bulk                0:vdd      0:vdd      0:0        0:0     
 model               0:pch      0:pch      0:nch      0:nch   
 w eff              48.0000n   48.0000n   24.0000n   24.0000n 
 l eff              16.0000n   16.0000n   16.0000n   16.0000n 
 rd eff              0.         0.         0.         0.      
 rs eff              0.         0.         0.         0.      
 cdsat              10.0000f   10.0000f   10.0000f   10.0000f 
 cssat              10.0000f   10.0000f   10.0000f   10.0000f 
 capbd               0.         0.         0.         0.      
 capbs               0.         0.         0.         0.      
 temp               25.0000    25.0000    25.0000    25.0000  
 aic                                                          
 m                   1.0000     1.0000     1.0000     1.0000  
 w drawn            48.0000n   48.0000n   24.0000n   24.0000n 
 l drawn            16.0000n   16.0000n   16.0000n   16.0000n 
  
  
                                                              
 element name       52:m2      52:m3      52:m4      52:m5    
 drain              52:net1     0:g160    52:net1    52:net2  
 gate               12:x       52:net1    12:x        0:g1613 
 source              0:0        0:vdd     52:net2     0:vdd   
 bulk                0:0        0:vdd     52:net2     0:vdd   
 model               0:nch      0:pch      0:pch      0:pch   
 w eff              24.0000n   48.0000n   96.0000n   96.0000n 
 l eff              16.0000n   16.0000n   16.0000n   16.0000n 
 rd eff              0.         0.         0.         0.      
 rs eff              0.         0.         0.         0.      
 cdsat              10.0000f   10.0000f   10.0000f   10.0000f 
 cssat              10.0000f   10.0000f   10.0000f   10.0000f 
 capbd               0.         0.         0.         0.      
 capbs               0.         0.         0.         0.      
 temp               25.0000    25.0000    25.0000    25.0000  
 aic                                                          
 m                   1.0000     1.0000     1.0000     1.0000  
 w drawn            24.0000n   48.0000n   96.0000n   96.0000n 
 l drawn            16.0000n   16.0000n   16.0000n   16.0000n 
  
  
                                                              
 element name       54:m0      54:m1      54:m2      54:m3    
 drain              13:g0      54:net1    54:net2    13:g0    
 gate               54:net1     0:ina1     0:inb1    54:net1  
 source              0:0       54:net2     0:0        0:vdd   
 bulk                0:0       54:net2     0:0        0:vdd   
 model               0:nch      0:nch      0:nch      0:pch   
 w eff              24.0000n   48.0000n   48.0000n   48.0000n 
 l eff              16.0000n   16.0000n   16.0000n   16.0000n 
 rd eff              0.         0.         0.         0.      
 rs eff              0.         0.         0.         0.      
 cdsat              10.0000f   10.0000f   10.0000f   10.0000f 
 cssat              10.0000f   10.0000f   10.0000f   10.0000f 
 capbd               0.         0.         0.         0.      
 capbs               0.         0.         0.         0.      
 temp               25.0000    25.0000    25.0000    25.0000  
 aic                                                          
 m                   1.0000     1.0000     1.0000     1.0000  
 w drawn            24.0000n   48.0000n   48.0000n   48.0000n 
 l drawn            16.0000n   16.0000n   16.0000n   16.0000n 
  
  
                                                              
 element name       54:m4      54:m5      55:m0      55:m1    
 drain              54:net1    54:net1    13:m       55:net1  
 gate                0:inb1     0:ina1    55:net1     0:c0    
 source              0:vdd      0:vdd      0:0       55:net2  
 bulk                0:vdd      0:vdd      0:0       55:net2  
 model               0:pch      0:pch      0:nch      0:nch   
 w eff              48.0000n   48.0000n   24.0000n   48.0000n 
 l eff              16.0000n   16.0000n   16.0000n   16.0000n 
 rd eff              0.         0.         0.         0.      
 rs eff              0.         0.         0.         0.      
 cdsat              10.0000f   10.0000f   10.0000f   10.0000f 
 cssat              10.0000f   10.0000f   10.0000f   10.0000f 
 capbd               0.         0.         0.         0.      
 capbs               0.         0.         0.         0.      
 temp               25.0000    25.0000    25.0000    25.0000  
 aic                                                          
 m                   1.0000     1.0000     1.0000     1.0000  
 w drawn            48.0000n   48.0000n   24.0000n   48.0000n 
 l drawn            16.0000n   16.0000n   16.0000n   16.0000n 
  
  
                                                              
 element name       55:m2      55:m3      55:m4      55:m5    
 drain              55:net2    13:m       55:net1    55:net1  
 gate               13:p0      55:net1    13:p0       0:c0    
 source              0:0        0:vdd      0:vdd      0:vdd   
 bulk                0:0        0:vdd      0:vdd      0:vdd   
 model               0:nch      0:pch      0:pch      0:pch   
 w eff              48.0000n   48.0000n   48.0000n   48.0000n 
 l eff              16.0000n   16.0000n   16.0000n   16.0000n 
 rd eff              0.         0.         0.         0.      
 rs eff              0.         0.         0.         0.      
 cdsat              10.0000f   10.0000f   10.0000f   10.0000f 
 cssat              10.0000f   10.0000f   10.0000f   10.0000f 
 capbd               0.         0.         0.         0.      
 capbs               0.         0.         0.         0.      
 temp               25.0000    25.0000    25.0000    25.0000  
 aic                                                          
 m                   1.0000     1.0000     1.0000     1.0000  
 w drawn            48.0000n   48.0000n   48.0000n   48.0000n 
 l drawn            16.0000n   16.0000n   16.0000n   16.0000n 
  
  
                                                              
 element name       56:m0      56:m1      56:m2      56:m3    
 drain               1:c1      56:net1    56:net1     1:c1    
 gate               56:net1    13:g0      13:m       56:net1  
 source              0:0        0:0        0:0        0:vdd   
 bulk                0:0        0:0        0:0        0:vdd   
 model               0:nch      0:nch      0:nch      0:pch   
 w eff              24.0000n   24.0000n   24.0000n   48.0000n 
 l eff              16.0000n   16.0000n   16.0000n   16.0000n 
 rd eff              0.         0.         0.         0.      
 rs eff              0.         0.         0.         0.      
 cdsat              10.0000f   10.0000f   10.0000f   10.0000f 
 cssat              10.0000f   10.0000f   10.0000f   10.0000f 
 capbd               0.         0.         0.         0.      
 capbs               0.         0.         0.         0.      
 temp               25.0000    25.0000    25.0000    25.0000  
 aic                                                          
 m                   1.0000     1.0000     1.0000     1.0000  
 w drawn            24.0000n   24.0000n   24.0000n   48.0000n 
 l drawn            16.0000n   16.0000n   16.0000n   16.0000n 
  
  
                                                              
 element name       56:m4      56:m5      59:m0      59:m1    
 drain              56:net1    56:net2    14:g0      59:net1  
 gate               13:m       13:g0      59:net1     0:ina2  
 source             56:net2     0:vdd      0:0       59:net2  
 bulk               56:net2     0:vdd      0:0       59:net2  
 model               0:pch      0:pch      0:nch      0:nch   
 w eff              96.0000n   96.0000n   24.0000n   48.0000n 
 l eff              16.0000n   16.0000n   16.0000n   16.0000n 
 rd eff              0.         0.         0.         0.      
 rs eff              0.         0.         0.         0.      
 cdsat              10.0000f   10.0000f   10.0000f   10.0000f 
 cssat              10.0000f   10.0000f   10.0000f   10.0000f 
 capbd               0.         0.         0.         0.      
 capbs               0.         0.         0.         0.      
 temp               25.0000    25.0000    25.0000    25.0000  
 aic                                                          
 m                   1.0000     1.0000     1.0000     1.0000  
 w drawn            96.0000n   96.0000n   24.0000n   48.0000n 
 l drawn            16.0000n   16.0000n   16.0000n   16.0000n 
  
  
                                                              
 element name       59:m2      59:m3      59:m4      59:m5    
 drain              59:net2    14:g0      59:net1    59:net1  
 gate                0:inb2    59:net1     0:inb2     0:ina2  
 source              0:0        0:vdd      0:vdd      0:vdd   
 bulk                0:0        0:vdd      0:vdd      0:vdd   
 model               0:nch      0:pch      0:pch      0:pch   
 w eff              48.0000n   48.0000n   48.0000n   48.0000n 
 l eff              16.0000n   16.0000n   16.0000n   16.0000n 
 rd eff              0.         0.         0.         0.      
 rs eff              0.         0.         0.         0.      
 cdsat              10.0000f   10.0000f   10.0000f   10.0000f 
 cssat              10.0000f   10.0000f   10.0000f   10.0000f 
 capbd               0.         0.         0.         0.      
 capbs               0.         0.         0.         0.      
 temp               25.0000    25.0000    25.0000    25.0000  
 aic                                                          
 m                   1.0000     1.0000     1.0000     1.0000  
 w drawn            48.0000n   48.0000n   48.0000n   48.0000n 
 l drawn            16.0000n   16.0000n   16.0000n   16.0000n 
  
  
                                                              
 element name       60:m0      60:m1      60:m2      60:m3    
 drain              14:m       60:net1    60:net2    14:m     
 gate               60:net1     1:c1      14:p0      60:net1  
 source              0:0       60:net2     0:0        0:vdd   
 bulk                0:0       60:net2     0:0        0:vdd   
 model               0:nch      0:nch      0:nch      0:pch   
 w eff              24.0000n   48.0000n   48.0000n   48.0000n 
 l eff              16.0000n   16.0000n   16.0000n   16.0000n 
 rd eff              0.         0.         0.         0.      
 rs eff              0.         0.         0.         0.      
 cdsat              10.0000f   10.0000f   10.0000f   10.0000f 
 cssat              10.0000f   10.0000f   10.0000f   10.0000f 
 capbd               0.         0.         0.         0.      
 capbs               0.         0.         0.         0.      
 temp               25.0000    25.0000    25.0000    25.0000  
 aic                                                          
 m                   1.0000     1.0000     1.0000     1.0000  
 w drawn            24.0000n   48.0000n   48.0000n   48.0000n 
 l drawn            16.0000n   16.0000n   16.0000n   16.0000n 
  
  
                                                              
 element name       60:m4      60:m5      61:m0      61:m1    
 drain              60:net1    60:net1     1:c2      61:net1  
 gate               14:p0       1:c1      61:net1    14:g0    
 source              0:vdd      0:vdd      0:0        0:0     
 bulk                0:vdd      0:vdd      0:0        0:0     
 model               0:pch      0:pch      0:nch      0:nch   
 w eff              48.0000n   48.0000n   24.0000n   24.0000n 
 l eff              16.0000n   16.0000n   16.0000n   16.0000n 
 rd eff              0.         0.         0.         0.      
 rs eff              0.         0.         0.         0.      
 cdsat              10.0000f   10.0000f   10.0000f   10.0000f 
 cssat              10.0000f   10.0000f   10.0000f   10.0000f 
 capbd               0.         0.         0.         0.      
 capbs               0.         0.         0.         0.      
 temp               25.0000    25.0000    25.0000    25.0000  
 aic                                                          
 m                   1.0000     1.0000     1.0000     1.0000  
 w drawn            48.0000n   48.0000n   24.0000n   24.0000n 
 l drawn            16.0000n   16.0000n   16.0000n   16.0000n 
  
  
                                                              
 element name       61:m2      61:m3      61:m4      61:m5    
 drain              61:net1     1:c2      61:net1    61:net2  
 gate               14:m       61:net1    14:m       14:g0    
 source              0:0        0:vdd     61:net2     0:vdd   
 bulk                0:0        0:vdd     61:net2     0:vdd   
 model               0:nch      0:pch      0:pch      0:pch   
 w eff              24.0000n   48.0000n   96.0000n   96.0000n 
 l eff              16.0000n   16.0000n   16.0000n   16.0000n 
 rd eff              0.         0.         0.         0.      
 rs eff              0.         0.         0.         0.      
 cdsat              10.0000f   10.0000f   10.0000f   10.0000f 
 cssat              10.0000f   10.0000f   10.0000f   10.0000f 
 capbd               0.         0.         0.         0.      
 capbs               0.         0.         0.         0.      
 temp               25.0000    25.0000    25.0000    25.0000  
 aic                                                          
 m                   1.0000     1.0000     1.0000     1.0000  
 w drawn            24.0000n   48.0000n   96.0000n   96.0000n 
 l drawn            16.0000n   16.0000n   16.0000n   16.0000n 
  
  
                                                              
 element name       64:m0      64:m1      64:m2      64:m3    
 drain              15:g0      64:net1    64:net2    15:g0    
 gate               64:net1     0:ina3     0:inb3    64:net1  
 source              0:0       64:net2     0:0        0:vdd   
 bulk                0:0       64:net2     0:0        0:vdd   
 model               0:nch      0:nch      0:nch      0:pch   
 w eff              24.0000n   48.0000n   48.0000n   48.0000n 
 l eff              16.0000n   16.0000n   16.0000n   16.0000n 
 rd eff              0.         0.         0.         0.      
 rs eff              0.         0.         0.         0.      
 cdsat              10.0000f   10.0000f   10.0000f   10.0000f 
 cssat              10.0000f   10.0000f   10.0000f   10.0000f 
 capbd               0.         0.         0.         0.      
 capbs               0.         0.         0.         0.      
 temp               25.0000    25.0000    25.0000    25.0000  
 aic                                                          
 m                   1.0000     1.0000     1.0000     1.0000  
 w drawn            24.0000n   48.0000n   48.0000n   48.0000n 
 l drawn            16.0000n   16.0000n   16.0000n   16.0000n 
  
  
                                                              
 element name       64:m4      64:m5      65:m0      65:m1    
 drain              64:net1    64:net1    15:m       65:net1  
 gate                0:inb3     0:ina3    65:net1     1:c2    
 source              0:vdd      0:vdd      0:0       65:net2  
 bulk                0:vdd      0:vdd      0:0       65:net2  
 model               0:pch      0:pch      0:nch      0:nch   
 w eff              48.0000n   48.0000n   24.0000n   48.0000n 
 l eff              16.0000n   16.0000n   16.0000n   16.0000n 
 rd eff              0.         0.         0.         0.      
 rs eff              0.         0.         0.         0.      
 cdsat              10.0000f   10.0000f   10.0000f   10.0000f 
 cssat              10.0000f   10.0000f   10.0000f   10.0000f 
 capbd               0.         0.         0.         0.      
 capbs               0.         0.         0.         0.      
 temp               25.0000    25.0000    25.0000    25.0000  
 aic                                                          
 m                   1.0000     1.0000     1.0000     1.0000  
 w drawn            48.0000n   48.0000n   24.0000n   48.0000n 
 l drawn            16.0000n   16.0000n   16.0000n   16.0000n 
  
  
                                                              
 element name       65:m2      65:m3      65:m4      65:m5    
 drain              65:net2    15:m       65:net1    65:net1  
 gate               15:p0      65:net1    15:p0       1:c2    
 source              0:0        0:vdd      0:vdd      0:vdd   
 bulk                0:0        0:vdd      0:vdd      0:vdd   
 model               0:nch      0:pch      0:pch      0:pch   
 w eff              48.0000n   48.0000n   48.0000n   48.0000n 
 l eff              16.0000n   16.0000n   16.0000n   16.0000n 
 rd eff              0.         0.         0.         0.      
 rs eff              0.         0.         0.         0.      
 cdsat              10.0000f   10.0000f   10.0000f   10.0000f 
 cssat              10.0000f   10.0000f   10.0000f   10.0000f 
 capbd               0.         0.         0.         0.      
 capbs               0.         0.         0.         0.      
 temp               25.0000    25.0000    25.0000    25.0000  
 aic                                                          
 m                   1.0000     1.0000     1.0000     1.0000  
 w drawn            48.0000n   48.0000n   48.0000n   48.0000n 
 l drawn            16.0000n   16.0000n   16.0000n   16.0000n 
  
  
                                                              
 element name       66:m0      66:m1      66:m2      66:m3    
 drain               1:c3      66:net1    66:net1     1:c3    
 gate               66:net1    15:g0      15:m       66:net1  
 source              0:0        0:0        0:0        0:vdd   
 bulk                0:0        0:0        0:0        0:vdd   
 model               0:nch      0:nch      0:nch      0:pch   
 w eff              24.0000n   24.0000n   24.0000n   48.0000n 
 l eff              16.0000n   16.0000n   16.0000n   16.0000n 
 rd eff              0.         0.         0.         0.      
 rs eff              0.         0.         0.         0.      
 cdsat              10.0000f   10.0000f   10.0000f   10.0000f 
 cssat              10.0000f   10.0000f   10.0000f   10.0000f 
 capbd               0.         0.         0.         0.      
 capbs               0.         0.         0.         0.      
 temp               25.0000    25.0000    25.0000    25.0000  
 aic                                                          
 m                   1.0000     1.0000     1.0000     1.0000  
 w drawn            24.0000n   24.0000n   24.0000n   48.0000n 
 l drawn            16.0000n   16.0000n   16.0000n   16.0000n 
  
  
                                                              
 element name       66:m4      66:m5      71:m0      71:m1    
 drain              66:net1    66:net2     2:g11     71:net1  
 gate               15:m       15:g0      71:net1     0:ina1  
 source             66:net2     0:vdd      0:0       71:net2  
 bulk               66:net2     0:vdd      0:0       71:net2  
 model               0:pch      0:pch      0:nch      0:nch   
 w eff              96.0000n   96.0000n   24.0000n   48.0000n 
 l eff              16.0000n   16.0000n   16.0000n   16.0000n 
 rd eff              0.         0.         0.         0.      
 rs eff              0.         0.         0.         0.      
 cdsat              10.0000f   10.0000f   10.0000f   10.0000f 
 cssat              10.0000f   10.0000f   10.0000f   10.0000f 
 capbd               0.         0.         0.         0.      
 capbs               0.         0.         0.         0.      
 temp               25.0000    25.0000    25.0000    25.0000  
 aic                                                          
 m                   1.0000     1.0000     1.0000     1.0000  
 w drawn            96.0000n   96.0000n   24.0000n   48.0000n 
 l drawn            16.0000n   16.0000n   16.0000n   16.0000n 
  
  
                                                              
 element name       71:m2      71:m3      71:m4      71:m5    
 drain              71:net2     2:g11     71:net1    71:net1  
 gate                0:inb1    71:net1     0:inb1     0:ina1  
 source              0:0        0:vdd      0:vdd      0:vdd   
 bulk                0:0        0:vdd      0:vdd      0:vdd   
 model               0:nch      0:pch      0:pch      0:pch   
 w eff              48.0000n   48.0000n   48.0000n   48.0000n 
 l eff              16.0000n   16.0000n   16.0000n   16.0000n 
 rd eff              0.         0.         0.         0.      
 rs eff              0.         0.         0.         0.      
 cdsat              10.0000f   10.0000f   10.0000f   10.0000f 
 cssat              10.0000f   10.0000f   10.0000f   10.0000f 
 capbd               0.         0.         0.         0.      
 capbs               0.         0.         0.         0.      
 temp               25.0000    25.0000    25.0000    25.0000  
 aic                                                          
 m                   1.0000     1.0000     1.0000     1.0000  
 w drawn            48.0000n   48.0000n   48.0000n   48.0000n 
 l drawn            16.0000n   16.0000n   16.0000n   16.0000n 
  
  
                                                              
 element name       73:m0      73:m1      73:m2      73:m3    
 drain              18:g0      73:net1    73:net2    18:g0    
 gate               73:net1     0:ina2     0:inb2    73:net1  
 source              0:0       73:net2     0:0        0:vdd   
 bulk                0:0       73:net2     0:0        0:vdd   
 model               0:nch      0:nch      0:nch      0:pch   
 w eff              24.0000n   48.0000n   48.0000n   48.0000n 
 l eff              16.0000n   16.0000n   16.0000n   16.0000n 
 rd eff              0.         0.         0.         0.      
 rs eff              0.         0.         0.         0.      
 cdsat              10.0000f   10.0000f   10.0000f   10.0000f 
 cssat              10.0000f   10.0000f   10.0000f   10.0000f 
 capbd               0.         0.         0.         0.      
 capbs               0.         0.         0.         0.      
 temp               25.0000    25.0000    25.0000    25.0000  
 aic                                                          
 m                   1.0000     1.0000     1.0000     1.0000  
 w drawn            24.0000n   48.0000n   48.0000n   48.0000n 
 l drawn            16.0000n   16.0000n   16.0000n   16.0000n 
  
  
                                                              
 element name       73:m4      73:m5      74:m0      74:m1    
 drain              73:net1    73:net1    18:x       74:net1  
 gate                0:inb2     0:ina2    74:net1     2:g11   
 source              0:vdd      0:vdd      0:0       74:net2  
 bulk                0:vdd      0:vdd      0:0       74:net2  
 model               0:pch      0:pch      0:nch      0:nch   
 w eff              48.0000n   48.0000n   24.0000n   48.0000n 
 l eff              16.0000n   16.0000n   16.0000n   16.0000n 
 rd eff              0.         0.         0.         0.      
 rs eff              0.         0.         0.         0.      
 cdsat              10.0000f   10.0000f   10.0000f   10.0000f 
 cssat              10.0000f   10.0000f   10.0000f   10.0000f 
 capbd               0.         0.         0.         0.      
 capbs               0.         0.         0.         0.      
 temp               25.0000    25.0000    25.0000    25.0000  
 aic                                                          
 m                   1.0000     1.0000     1.0000     1.0000  
 w drawn            48.0000n   48.0000n   24.0000n   48.0000n 
 l drawn            16.0000n   16.0000n   16.0000n   16.0000n 
  
  
                                                              
 element name       74:m2      74:m3      74:m4      74:m5    
 drain              74:net2    18:x       74:net1    74:net1  
 gate               18:p0      74:net1    18:p0       2:g11   
 source              0:0        0:vdd      0:vdd      0:vdd   
 bulk                0:0        0:vdd      0:vdd      0:vdd   
 model               0:nch      0:pch      0:pch      0:pch   
 w eff              48.0000n   48.0000n   48.0000n   48.0000n 
 l eff              16.0000n   16.0000n   16.0000n   16.0000n 
 rd eff              0.         0.         0.         0.      
 rs eff              0.         0.         0.         0.      
 cdsat              10.0000f   10.0000f   10.0000f   10.0000f 
 cssat              10.0000f   10.0000f   10.0000f   10.0000f 
 capbd               0.         0.         0.         0.      
 capbs               0.         0.         0.         0.      
 temp               25.0000    25.0000    25.0000    25.0000  
 aic                                                          
 m                   1.0000     1.0000     1.0000     1.0000  
 w drawn            48.0000n   48.0000n   48.0000n   48.0000n 
 l drawn            16.0000n   16.0000n   16.0000n   16.0000n 
  
  
                                                              
 element name       75:m0      75:m1      75:m2      75:m3    
 drain               2:g21     75:net1    75:net1     2:g21   
 gate               75:net1    18:g0      18:x       75:net1  
 source              0:0        0:0        0:0        0:vdd   
 bulk                0:0        0:0        0:0        0:vdd   
 model               0:nch      0:nch      0:nch      0:pch   
 w eff              24.0000n   24.0000n   24.0000n   48.0000n 
 l eff              16.0000n   16.0000n   16.0000n   16.0000n 
 rd eff              0.         0.         0.         0.      
 rs eff              0.         0.         0.         0.      
 cdsat              10.0000f   10.0000f   10.0000f   10.0000f 
 cssat              10.0000f   10.0000f   10.0000f   10.0000f 
 capbd               0.         0.         0.         0.      
 capbs               0.         0.         0.         0.      
 temp               25.0000    25.0000    25.0000    25.0000  
[...]
 + 19:x       =  59.1804u  20:g0      =  59.1804u  20:p0      = 699.9977m
 + 20:x       =  59.1804u  21:net1    = 699.9977m  21:net2    = 984.3956n
 + 22:net1    = 699.9954m  22:net2    = 699.9977m  23:g0      =  59.1804u
 + 23:m       =  59.1804u  23:p0      = 699.9977m  24:g0      =  59.1804u
 + 24:m       =  59.1804u  24:p0      = 699.9977m  25:g0      =  59.1804u
 + 25:m       =  59.1804u  25:p0      = 699.9977m  26:p0      = 699.9977m
 + 28:g0      =  59.1804u  28:p0      = 699.9977m  28:x       =  59.1804u
 + 29:g0      =  59.1804u  29:p0      = 699.9977m  29:x       =  59.1804u
 + 30:g0      =  59.1804u  30:p0      = 699.9977m  30:x       =  59.1804u
 + 31:net1    = 699.9977m  31:net2    = 984.3956n  32:net1    = 699.9954m
 + 32:net2    = 699.9977m  33:g0      =  59.1804u  33:m       =  59.1804u
 + 33:p0      = 699.9977m  34:g0      =  59.1804u  34:m       =  59.1804u
 + 34:p0      = 699.9977m  35:g0      =  59.1804u  35:m       =  59.1804u
 + 35:p0      = 699.9977m  36:p0      = 699.9977m  38:g0      =  59.1804u
 + 38:p0      = 699.9977m  38:x       =  59.1804u  39:g0      =  59.1804u
 + 39:p0      = 699.9977m  39:x       =  59.1804u  40:g0      =  59.1804u
 + 40:p0      = 699.9977m  40:x       =  59.1804u  41:net1    = 699.9977m
 + 41:net2    = 984.3956n  42:net1    = 699.9954m  42:net2    = 699.9977m
 + 43:g0      =  59.1804u  43:m       =  59.1804u  43:p0      = 699.9977m
 + 44:g0      =  59.1804u  44:m       =  59.1804u  44:p0      = 699.9977m
 + 45:g0      =  59.1804u  45:m       =  59.1804u  45:p0      = 699.9977m
 + 46:p0      = 699.9977m  48:g0      =  59.1804u  48:p0      = 699.9977m
 + 48:x       =  59.1804u  49:g0      =  59.1804u  49:p0      = 699.9977m
 + 49:x       =  59.1804u  50:g0      =  59.1804u  50:p0      = 699.9977m
 + 50:x       =  59.1804u  51:net1    = 699.9977m  51:net2    = 984.3956n
 + 52:net1    = 699.9954m  52:net2    = 699.9977m  53:/a      = 699.9977m
 + 53:/b      =  59.1535u  53:m1      =  59.1603u  53:m2      = 699.9977m
 + 54:net1    = 699.9977m  54:net2    = 984.3923n  55:net1    = 699.9977m
 + 55:net2    = 984.3956n  56:net1    = 699.9954m  56:net2    = 699.9977m
 + 57:/a      = 699.9977m  57:/b      =  59.1807u  57:m1      =  59.1603u
 + 57:m2      = 699.9977m  58:/a      = 699.9977m  58:/b      =  59.1535u
 + 58:m1      =  59.1603u  58:m2      = 699.9977m  59:net1    = 699.9977m
 + 59:net2    = 984.3923n  60:net1    = 699.9977m  60:net2    = 984.3956n
 + 61:net1    = 699.9954m  61:net2    = 699.9977m  62:/a      = 699.9977m
 + 62:/b      =  59.1807u  62:m1      =  59.1603u  62:m2      = 699.9977m
 + 63:/a      = 699.9977m  63:/b      =  59.1535u  63:m1      =  59.1603u
 + 63:m2      = 699.9977m  64:net1    = 699.9977m  64:net2    = 984.3923n
 + 65:net1    = 699.9977m  65:net2    = 984.3956n  66:net1    = 699.9954m
 + 66:net2    = 699.9977m  67:/a      = 699.9977m  67:/b      =  59.1807u
 + 67:m1      =  59.1603u  67:m2      = 699.9977m  68:/a      = 699.9977m
 + 68:/b      =  59.1535u  68:m1      =  59.1603u  68:m2      = 699.9977m
 + 69:/a      = 699.9977m  69:/b      =  59.1807u  69:m1      =  59.1603u
 + 69:m2      = 699.9977m  70:/a      = 699.9977m  70:/b      =  59.1535u
 + 70:m1      =  59.1603u  70:m2      = 699.9977m  71:net1    = 699.9977m
 + 71:net2    = 984.3923n  72:/a      = 699.9977m  72:/b      =  59.1535u
 + 72:m1      =  59.1603u  72:m2      = 699.9977m  73:net1    = 699.9977m
 + 73:net2    = 984.3923n  74:net1    = 699.9977m  74:net2    = 984.3956n
 + 75:net1    = 699.9954m  75:net2    = 699.9977m  76:net1    = 118.3664u
 + 76:net2    =  59.1806u  77:/a      = 699.9977m  77:/b      =  59.1535u
 + 77:m1      =  59.1603u  77:m2      = 699.9977m  78:net1    = 699.9977m
 + 78:net2    = 984.3923n  79:net1    = 699.9977m  79:net2    = 984.3956n
 + 80:net1    = 699.9954m  80:net2    = 699.9977m  81:net1    = 118.3664u
 + 81:net2    =  59.1806u  82:/a      = 699.9977m  82:/b      =  59.1535u
 + 82:m1      =  59.1603u  82:m2      = 699.9977m  83:net1    = 699.9977m
 + 83:net2    = 984.3923n  84:net1    = 699.9977m  84:net2    = 984.3956n
 + 85:net1    = 699.9954m  85:net2    = 699.9977m  86:net1    = 118.3664u
 + 86:net2    =  59.1806u  87:/a      = 699.9977m  87:/b      =  59.1535u
 + 87:m1      =  59.1603u  87:m2      = 699.9977m  88:net1    = 699.9977m
 + 88:net2    = 984.3923n  89:net1    = 699.9977m  89:net2    = 984.3956n
 + 90:net1    = 699.9954m  90:net2    = 699.9977m  91:/a      = 699.9977m
 + 91:/b      =  59.1807u  91:m1      =  59.1603u  91:m2      = 699.9977m
 + 92:/a      = 699.9977m  92:/b      =  59.1535u  92:m1      =  59.1603u
 + 92:m2      = 699.9977m  93:net1    = 699.9977m  93:net2    = 984.3923n
 + 94:net1    = 699.9977m  94:net2    = 984.3956n  95:net1    = 699.9954m
 + 95:net2    = 699.9977m  96:/a      = 699.9977m  96:/b      =  59.1807u
 + 96:m1      =  59.1603u  96:m2      = 699.9977m  97:/a      = 699.9977m
 + 97:/b      =  59.1535u  97:m1      =  59.1603u  97:m2      = 699.9977m
 + 98:net1    = 699.9977m  98:net2    = 984.3923n  99:net1    = 699.9977m
 + 99:net2    = 984.3956n 100:net1    = 699.9954m 100:net2    = 699.9977m
 +101:/a      = 699.9977m 101:/b      =  59.1807u 101:m1      =  59.1603u
 +101:m2      = 699.9977m 102:/a      = 699.9977m 102:/b      =  59.1535u
 +102:m1      =  59.1603u 102:m2      = 699.9977m 103:/a      = 699.9977m
 +103:/b      =  59.1807u 103:m1      =  59.1603u 103:m2      = 699.9977m
 +104:/a      = 699.9977m 104:/b      =  59.1535u 104:m1      =  59.1603u
 +104:m2      = 699.9977m 105:net1    = 699.9977m 105:net2    = 984.3923n
 +106:/a      = 699.9977m 106:/b      =  59.1535u 106:m1      =  59.1603u
 +106:m2      = 699.9977m 107:net1    = 699.9977m 107:net2    = 984.3923n
 +108:net1    = 699.9977m 108:net2    = 984.3956n 109:net1    = 699.9954m
 +109:net2    = 699.9977m 110:net1    = 118.3664u 110:net2    =  59.1806u
 +111:/a      = 699.9977m 111:/b      =  59.1535u 111:m1      =  59.1603u
 +111:m2      = 699.9977m 112:net1    = 699.9977m 112:net2    = 984.3923n
 +113:net1    = 699.9977m 113:net2    = 984.3956n 114:net1    = 699.9954m
 +114:net2    = 699.9977m 115:net1    = 118.3664u 115:net2    =  59.1806u
 +116:/a      = 699.9977m 116:/b      =  59.1535u 116:m1      =  59.1603u
 +116:m2      = 699.9977m 117:net1    = 699.9977m 117:net2    = 984.3923n
 +118:net1    = 699.9977m 118:net2    = 984.3956n 119:net1    = 699.9954m
 +119:net2    = 699.9977m 120:net1    = 118.3664u 120:net2    =  59.1806u
 +121:/a      = 699.9977m 121:/b      =  59.1535u 121:m1      =  59.1603u
 +121:m2      = 699.9977m 122:net1    = 699.9977m 122:net2    = 984.3923n
 +123:net1    = 699.9977m 123:net2    = 984.3956n 124:net1    = 699.9954m
 +124:net2    = 699.9977m 125:/a      = 699.9977m 125:/b      =  59.1807u
 +125:m1      =  59.1603u 125:m2      = 699.9977m 126:/a      = 699.9977m
 +126:/b      =  59.1535u 126:m1      =  59.1603u 126:m2      = 699.9977m
 +127:net1    = 699.9977m 127:net2    = 984.3923n 128:net1    = 699.9977m
 +128:net2    = 984.3956n 129:net1    = 699.9954m 129:net2    = 699.9977m
 +130:/a      = 699.9977m 130:/b      =  59.1807u 130:m1      =  59.1603u
 +130:m2      = 699.9977m 131:/a      = 699.9977m 131:/b      =  59.1535u
 +131:m1      =  59.1603u 131:m2      = 699.9977m 132:net1    = 699.9977m
 +132:net2    = 984.3923n 133:net1    = 699.9977m 133:net2    = 984.3956n
 +134:net1    = 699.9954m 134:net2    = 699.9977m 135:/a      = 699.9977m
 +135:/b      =  59.1807u 135:m1      =  59.1603u 135:m2      = 699.9977m
 +136:/a      = 699.9977m 136:/b      =  59.1535u 136:m1      =  59.1603u
 +136:m2      = 699.9977m 137:/a      = 699.9977m 137:/b      =  59.1807u
 +137:m1      =  59.1603u 137:m2      = 699.9977m 138:/a      = 699.9977m
 +138:/b      =  59.1535u 138:m1      =  59.1603u 138:m2      = 699.9977m
 +139:net1    = 699.9977m 139:net2    = 984.3923n 140:/a      = 699.9977m
 +140:/b      =  59.1535u 140:m1      =  59.1603u 140:m2      = 699.9977m
 +141:net1    = 699.9977m 141:net2    = 984.3923n 142:net1    = 699.9977m
 +142:net2    = 984.3956n 143:net1    = 699.9954m 143:net2    = 699.9977m
 +144:net1    = 118.3664u 144:net2    =  59.1806u 145:/a      = 699.9977m
 +145:/b      =  59.1535u 145:m1      =  59.1603u 145:m2      = 699.9977m
 +146:net1    = 699.9977m 146:net2    = 984.3923n 147:net1    = 699.9977m
 +147:net2    = 984.3956n 148:net1    = 699.9954m 148:net2    = 699.9977m
 +149:net1    = 118.3664u 149:net2    =  59.1806u 150:/a      = 699.9977m
 +150:/b      =  59.1535u 150:m1      =  59.1603u 150:m2      = 699.9977m
 +151:net1    = 699.9977m 151:net2    = 984.3923n 152:net1    = 699.9977m
 +152:net2    = 984.3956n 153:net1    = 699.9954m 153:net2    = 699.9977m
 +154:net1    = 118.3664u 154:net2    =  59.1806u 155:/a      = 699.9977m
 +155:/b      =  59.1535u 155:m1      =  59.1603u 155:m2      = 699.9977m
 +156:net1    = 699.9977m 156:net2    = 984.3923n 157:net1    = 699.9977m
 +157:net2    = 984.3956n 158:net1    = 699.9954m 158:net2    = 699.9977m
 +159:/a      = 699.9977m 159:/b      =  59.1807u 159:m1      =  59.1603u
 +159:m2      = 699.9977m 160:/a      = 699.9977m 160:/b      =  59.1535u
 +160:m1      =  59.1603u 160:m2      = 699.9977m 161:net1    = 699.9977m
 +161:net2    = 984.3923n 162:net1    = 699.9977m 162:net2    = 984.3956n
 +163:net1    = 699.9954m 163:net2    = 699.9977m 164:/a      = 699.9977m
 +164:/b      =  59.1807u 164:m1      =  59.1603u 164:m2      = 699.9977m
 +165:/a      = 699.9977m 165:/b      =  59.1535u 165:m1      =  59.1603u
 +165:m2      = 699.9977m 166:net1    = 699.9977m 166:net2    = 984.3923n
 +167:net1    = 699.9977m 167:net2    = 984.3956n 168:net1    = 699.9954m
 +168:net2    = 699.9977m 169:/a      = 699.9977m 169:/b      =  59.1807u
 +169:m1      =  59.1603u 169:m2      = 699.9977m 170:/a      = 699.9977m
 +170:/b      =  59.1535u 170:m1      =  59.1603u 170:m2      = 699.9977m
 +171:/a      = 699.9977m 171:/b      =  59.1807u 171:m1      =  59.1603u
 +171:m2      = 699.9977m 172:/a      = 699.9977m 172:/b      =  59.1535u
 +172:m1      =  59.1603u 172:m2      = 699.9977m 173:net1    = 699.9977m
 +173:net2    = 984.3923n 174:/a      = 699.9977m 174:/b      =  59.1535u
 +174:m1      =  59.1603u 174:m2      = 699.9977m 175:net1    = 699.9977m
 +175:net2    = 984.3923n 176:net1    = 699.9977m 176:net2    = 984.3956n
 +177:net1    = 699.9954m 177:net2    = 699.9977m 178:net1    = 118.3664u
 +178:net2    =  59.1806u 179:/a      = 699.9977m 179:/b      =  59.1535u
 +179:m1      =  59.1603u 179:m2      = 699.9977m 180:net1    = 699.9977m
 +180:net2    = 984.3923n 181:net1    = 699.9977m 181:net2    = 984.3956n
 +182:net1    = 699.9954m 182:net2    = 699.9977m 183:net1    = 118.3664u
 +183:net2    =  59.1806u 184:/a      = 699.9977m 184:/b      =  59.1535u
 +184:m1      =  59.1603u 184:m2      = 699.9977m 185:net1    = 699.9977m
 +185:net2    = 984.3923n 186:net1    = 699.9977m 186:net2    = 984.3956n
 +187:net1    = 699.9954m 187:net2    = 699.9977m 188:net1    = 118.3664u
 +188:net2    =  59.1806u 191:net1    = 699.9994m 191:net2    = 349.9997m
 +192:net1    = 118.3391u 192:net2    =  59.1669u 193:net1    = 114.8259u
 +193:net2    = 699.9329m 196:net1    = 699.9994m 196:net2    = 349.9997m
 +197:net1    = 118.3663u 197:net2    =  59.1806u 198:net1    = 114.8259u
 +198:net2    = 699.9329m 201:net1    = 699.9994m 201:net2    = 349.9997m
 +202:net1    = 118.3391u 202:net2    =  59.1669u 203:net1    = 114.8259u
 +203:net2    = 699.9329m 206:net1    = 699.9994m 206:net2    = 349.9997m
 +207:net1    = 118.3663u 207:net2    =  59.1806u 208:net1    = 114.8259u
 +208:net2    = 699.9329m 211:net1    = 699.9994m 211:net2    = 349.9997m
 +212:net1    = 118.3391u 212:net2    =  59.1669u 213:net1    = 114.8259u
 +213:net2    = 699.9329m 216:net1    = 699.9994m 216:net2    = 349.9997m
 +217:net1    = 118.3663u 217:net2    =  59.1806u 218:net1    = 114.8259u
 +218:net2    = 699.9329m 221:net1    = 699.9994m 221:net2    = 349.9997m
 +222:net1    = 118.3391u 222:net2    =  59.1669u 223:net1    = 114.8259u
 +223:net2    = 699.9329m 226:net1    = 699.9994m 226:net2    = 349.9997m
 +227:net1    = 118.3663u 227:net2    =  59.1806u 228:net1    = 114.8259u
 +228:net2    = 699.9329m 231:net1    = 699.9994m 231:net2    = 349.9997m
 +232:net1    = 118.3391u 232:net2    =  59.1669u 233:net1    = 114.8259u
 +233:net2    = 699.9329m 236:net1    = 699.9994m 236:net2    = 349.9997m
 +237:net1    = 118.3391u 237:net2    =  59.1669u 238:net1    = 114.8259u
 +238:net2    = 699.9329m 241:net1    = 699.9994m 241:net2    = 349.9997m
 +242:net1    = 118.3391u 242:net2    =  59.1669u 243:net1    = 114.8259u
 +243:net2    = 699.9329m 246:net1    = 699.9994m 246:net2    = 349.9997m
 +247:net1    = 118.3391u 247:net2    =  59.1669u 248:net1    = 114.8259u
 +248:net2    = 699.9329m 251:net1    = 699.9994m 251:net2    = 349.9997m
 +252:net1    = 118.3391u 252:net2    =  59.1669u 253:net1    = 114.8259u
 +253:net2    = 699.9329m 256:net1    = 699.9994m 256:net2    = 349.9997m
 +257:net1    = 118.3663u 257:net2    =  59.1806u 258:net1    = 114.8259u
 +258:net2    = 699.9329m 261:net1    = 699.9994m 261:net2    = 349.9997m
 +262:net1    = 118.3391u 262:net2    =  59.1669u 263:net1    = 114.8259u
 +263:net2    = 699.9329m 266:net1    = 699.9994m 266:net2    = 349.9997m
 +267:net1    = 118.3663u 267:net2    =  59.1806u 268:net1    = 114.8259u
 +268:net2    = 699.9329m 271:net1    = 699.9994m 271:net2    = 349.9997m
 +272:net1    = 118.3391u 272:net2    =  59.1669u 273:net1    = 114.8259u
 +273:net2    = 699.9329m 276:net1    = 699.9994m 276:net2    = 349.9997m
 +277:net1    = 118.3663u 277:net2    =  59.1806u 278:net1    = 114.8259u
 +278:net2    = 699.9329m 281:net1    = 699.9994m 281:net2    = 349.9997m
 +282:net1    = 118.3391u 282:net2    =  59.1669u 283:net1    = 114.8259u
 +283:net2    = 699.9329m 286:net1    = 699.9994m 286:net2    = 349.9997m
 +287:net1    = 118.3663u 287:net2    =  59.1806u 288:net1    = 114.8259u
 +288:net2    = 699.9329m 291:net1    = 699.9994m 291:net2    = 349.9997m
 +292:net1    = 118.3391u 292:net2    =  59.1669u 293:net1    = 114.8259u
 +293:net2    = 699.9329m 296:net1    = 699.9994m 296:net2    = 349.9997m
 +297:net1    = 118.3391u 297:net2    =  59.1669u 298:net1    = 114.8259u
 +298:net2    = 699.9329m 301:net1    = 699.9994m 301:net2    = 349.9997m
 +302:net1    = 118.3391u 302:net2    =  59.1669u 303:net1    = 114.8259u
 +303:net2    = 699.9329m 306:net1    = 699.9994m 306:net2    = 349.9997m
 +307:net1    = 118.3391u 307:net2    =  59.1669u 308:net1    = 114.8259u
 +308:net2    = 699.9329m 311:net1    = 699.9994m 311:net2    = 349.9997m
 +312:net1    = 118.3391u 312:net2    =  59.1669u 313:net1    = 114.8259u
 +313:net2    = 699.9329m 316:net1    = 699.9994m 316:net2    = 349.9997m
 +317:net1    = 118.3663u 317:net2    =  59.1806u 318:net1    = 114.8259u
 +318:net2    = 699.9329m 321:net1    = 699.9994m 321:net2    = 349.9997m
 +322:net1    = 118.3391u 322:net2    =  59.1669u 323:net1    = 114.8259u
 +323:net2    = 699.9329m 326:net1    = 699.9994m 326:net2    = 349.9997m
 +327:net1    = 118.3663u 327:net2    =  59.1806u 328:net1    = 114.8259u
 +328:net2    = 699.9329m 331:net1    = 699.9994m 331:net2    = 349.9997m
 +332:net1    = 118.3391u 332:net2    =  59.1669u 333:net1    = 114.8259u
 +333:net2    = 699.9329m 336:net1    = 699.9994m 336:net2    = 349.9997m
 +337:net1    = 118.3663u 337:net2    =  59.1806u 338:net1    = 114.8259u
 +338:net2    = 699.9329m 341:net1    = 699.9994m 341:net2    = 349.9997m
 +342:net1    = 118.3391u 342:net2    =  59.1669u 343:net1    = 114.8259u
 +343:net2    = 699.9329m 346:net1    = 699.9994m 346:net2    = 349.9997m
 +347:net1    = 118.3663u 347:net2    =  59.1806u 348:net1    = 114.8259u
 +348:net2    = 699.9329m 351:net1    = 699.9994m 351:net2    = 349.9997m
 +352:net1    = 118.3391u 352:net2    =  59.1669u 353:net1    = 114.8259u
 +353:net2    = 699.9329m 356:net1    = 699.9994m 356:net2    = 349.9997m
 +357:net1    = 118.3391u 357:net2    =  59.1669u 358:net1    = 114.8259u
 +358:net2    = 699.9329m 361:net1    = 699.9994m 361:net2    = 349.9997m
 +362:net1    = 118.3391u 362:net2    =  59.1669u 363:net1    = 114.8259u
 +363:net2    = 699.9329m 366:net1    = 699.9994m 366:net2    = 349.9997m
 +367:net1    = 118.3391u 367:net2    =  59.1669u 368:net1    = 114.8259u
 +368:net2    = 699.9329m 371:net1    = 699.9994m 371:net2    = 349.9997m
 +372:net1    = 118.3391u 372:net2    =  59.1669u 373:net1    = 114.8259u
 +373:net2    = 699.9329m 376:net1    = 699.9994m 376:net2    = 349.9997m
 +377:net1    = 118.3663u 377:net2    =  59.1806u 378:net1    = 114.8259u
 +378:net2    = 699.9329m 381:net1    = 699.9994m 381:net2    = 349.9997m
 +382:net1    = 118.3391u 382:net2    =  59.1669u 383:net1    = 114.8259u
 +383:net2    = 699.9329m 386:net1    = 699.9994m 386:net2    = 349.9997m
 +387:net1    = 118.3663u 387:net2    =  59.1806u 388:net1    = 114.8259u
 +388:net2    = 699.9329m 391:net1    = 699.9994m 391:net2    = 349.9997m
 +392:net1    = 118.3391u 392:net2    =  59.1669u 393:net1    = 114.8259u
 +393:net2    = 699.9329m 396:net1    = 699.9994m 396:net2    = 349.9997m
 +397:net1    = 118.3663u 397:net2    =  59.1806u 398:net1    = 114.8259u
 +398:net2    = 699.9329m 401:net1    = 699.9994m 401:net2    = 349.9997m
 +402:net1    = 118.3391u 402:net2    =  59.1669u 403:net1    = 114.8259u
 +403:net2    = 699.9329m 406:net1    = 699.9994m 406:net2    = 349.9997m
 +407:net1    = 118.3663u 407:net2    =  59.1806u 408:net1    = 114.8259u
 +408:net2    = 699.9329m 411:net1    = 699.9994m 411:net2    = 349.9997m
 +412:net1    = 118.3391u 412:net2    =  59.1669u 413:net1    = 114.8259u
 +413:net2    = 699.9329m 416:net1    = 699.9994m 416:net2    = 349.9997m
 +417:net1    = 118.3391u 417:net2    =  59.1669u 418:net1    = 114.8259u
 +418:net2    = 699.9329m 421:net1    = 699.9994m 421:net2    = 349.9997m
 +422:net1    = 118.3391u 422:net2    =  59.1669u 423:net1    = 114.8259u
 +423:net2    = 699.9329m 426:net1    = 699.9994m 426:net2    = 349.9997m
 +427:net1    = 118.3391u 427:net2    =  59.1669u 428:net1    = 114.8259u
 +428:net2    = 699.9329m

 ******  
 carry_skip_adder

 ****** transient analysis tnom=  25.000 temp=  90.000 ******
 tplh= -23.9074p  targ= 100.3261n   trig= 100.3500n
 tphl=  29.7033p  targ= 150.8797n   trig= 150.8500n
 tp=   2.8979p

          ***** job concluded
1****** HSPICE -- J-2014.09-2 64-BIT (Oct 22 2014) win64 ******                 
 ******  
 carry_skip_adder

 ****** job statistics summary tnom=  25.000 temp=  90.000 ******

  ******  HSPICE Threads Information  ******

  Command Line Threads Count :     1
  Available CPU Count        :     4
  Actual Threads Count       :     1


  ******  Circuit Statistics  ******
  # nodes       =     851 # elements   =    1666
  # resistors   =       0 # capacitors =       0 # inductors   =       0
  # mutual_inds =       0 # vccs       =       0 # vcvs        =       0
  # cccs        =       0 # ccvs       =       0 # volt_srcs   =      34
  # curr_srcs   =       0 # diodes     =       0 # bjts        =       0
  # jfets       =       0 # mosfets    =    1632 # U elements  =       0
  # T elements  =       0 # W elements =       0 # B elements  =       0
  # S elements  =       0 # P elements =       0 # va device   =       0
  # vector_srcs =       0 # N elements =       0


  ******  Runtime Statistics (seconds)  ******

  analysis           time    # points   tot. iter  conv.iter
  op point           0.03           1           5
  transient         29.96       10001       62716        9053 rev=       615
  readin             0.03
  errchk             0.16
  setup              0.02
  output             0.00


           peak memory used         50.05 megabytes
           total cpu time           30.20 seconds
           total elapsed time       30.24 seconds
           job started at     22:51:33 06/30/2019
           job ended   at     22:52:03 06/30/2019


  lic: Release hspice token(s) 
 lic: total license checkout elapse time:        0.03(s)
